#total energy=-3.71124314 eV

CRYSTAL
PRIMVEC
        75.9000000            0.00000000           0.00000000
        0.00000000            75.9000000           0.00000000
        0.00000000            0.00000000           75.9000000
PRIMCOORD
320 1
 C   36.331704   35.709719   29.092794
 H   36.775014   36.219859   28.205704
 H   35.940234   36.446859   29.803454
 H   37.142744   35.200039   29.575244
 H   35.506404   35.052499   28.826364
 C   32.423356   37.470939   34.435924
 H   32.266834   38.528239   34.690324
 H   32.479321   36.908189   35.374744
 H   33.315659   37.332739   33.848644
 H   31.563494   37.105339   33.893404
 C   41.407214   44.091739   45.225544
 H   41.871774   43.135439   45.025844
 H   40.498964   43.929839   45.775644
 H   42.025404   44.746939   45.807044
 H   41.191634   44.565439   44.274144
 C   41.258454   41.084839   29.928414
 H   40.289514   41.046739   29.391904
 H   41.156894   40.815539   30.997484
 H   41.958324   40.386339   29.443404
 H   41.653924   42.087439   29.838794
 C   41.842444   39.327639   42.540544
 H   42.735494   38.708439   42.507244
 H   41.232474   39.188539   41.629444
 H   41.223514   39.026639   43.379244
 H   42.128534   40.372039   42.688044
 C   37.705054   44.460839   39.594044
 H   36.749604   44.609339   39.101344
 H   38.151814   45.419239   39.804644
 H   37.553774   43.964539   40.561644
 H   38.407004   43.914939   38.972644
 C   35.375664   41.005739   45.316144
 H   34.504824   41.432339   45.783244
 H   35.050814   40.128439   44.723444
 H   35.842714   41.748539   44.687944
 H   36.082354   40.665239   46.077844
 C   42.456794   33.331389   38.875444
 H   42.160044   33.735339   37.908644
 H   43.076794   34.031549   39.459344
 H   42.972794   32.399269   38.726844
 H   41.557564   33.143769   39.432744
 C   31.993777   34.462269   38.266744
 H   31.565374   35.352849   37.855944
 H   31.348124   34.118359   39.084344
 H   32.053924   33.688189   37.488344
 H   32.986313   34.585599   38.672644
 C   38.725904   41.412339   32.977904
 H   39.388514   41.495539   33.855834
 H   39.173714   41.949039   32.130464
 H   38.584114   40.386239   32.665734
 H   37.766514   41.819039   33.255664
 C   45.943994   39.354639   35.827744
 H   45.598194   38.354539   36.059344
 H   46.991894   39.314839   35.662144
 H   45.445694   39.740339   34.965744
 H   45.638194   39.968639   36.668944
 C   36.500304   40.943039   38.527644
 H   35.982384   41.860839   38.306944
 H   37.263974   41.135439   39.300144
 H   36.970354   40.613439   37.630344
 H   35.827174   40.180539   38.918244
 C   46.020294   36.690509   39.182244
 H   45.553994   37.025039   40.078444
 H   45.351794   35.994759   38.705744
 H   46.917994   36.131229   39.503244
 H   46.260594   37.541139   38.566444
 C   41.580034   32.973189   45.353444
 H   40.789164   33.509599   44.805644
 H   41.708214   33.343239   46.372944
 H   42.535964   33.092979   44.838344
 H   41.262654   31.932999   45.397744
 C   41.942264   34.147519   32.300034
 H   41.836084   33.068359   32.524574
 H   40.960624   34.586399   32.064424
 H   42.391094   34.698379   33.127324
 H   42.555284   34.206289   31.422304
 C   33.692194   45.162739   38.416544
 H   32.651812   45.320039   38.702244
 H   34.060054   44.276539   38.922344
 H   33.723144   45.010939   37.324044
 H   34.285094   46.057039   38.679244
 C   33.125259   41.450139   36.694744
 H   32.660068   40.724839   36.027744
 H   34.153024   41.549839   36.377844
 H   33.135287   41.060139   37.711844
 H   32.626808   42.405139   36.718444
 C   38.370414   38.948839   44.704144
 H   39.082194   39.415039   45.417044
 H   37.877554   39.744039   44.162444
 H   38.936664   38.242439   44.097644
 H   37.604204   38.415939   45.253544
 C   32.385717   35.964829   41.823144
 H   33.140448   35.415299   41.247244
 H   32.269314   35.487639   42.775944
 H   32.714658   36.990689   41.963044
 H   31.422024   35.978839   41.330544
 C   33.931904   37.079739   45.402544
 H   34.832674   37.349939   44.887344
 H   33.101584   37.800439   45.164344
 H   33.651134   36.074239   45.066744
 H   34.113194   37.072239   46.470944
 C   30.866664   42.361639   40.292044
 H   30.004564   43.030739   40.203644
 H   31.627567   42.823839   40.933044
 H   31.308984   42.200439   39.326544
 H   30.518904   41.430339   40.739744
 C   37.908264   33.055649   31.895714
 H   37.190014   33.854299   32.098134
 H   37.402844   32.139549   31.632934
 H   38.551324   32.953759   32.765234
 H   38.506574   33.335969   31.053044
 C   34.601064   39.097239   41.542344
 H   35.578164   39.625839   41.504444
 H   33.737974   39.747239   41.651544
 H   34.639654   38.400939   42.379444
 H   34.517354   38.469139   40.627544
 C   40.192354   43.801139   36.404144
 H   40.514374   44.079939   37.414544
 H   41.053174   43.586539   35.769444
 H   39.532464   42.941639   36.420244
 H   39.682254   44.629639   35.968244
 C   37.544074   31.341419   35.245244
 H   36.869114   30.677329   35.770544
 H   37.080434   31.654989   34.317594
 H   38.451314   30.799929   35.019544
 H   37.738284   32.224289   35.853044
 C   30.451124   34.152899   34.398084
 H   30.395414   34.269089   33.329514
 H   29.679724   33.453729   34.695574
 H   31.413254   33.746869   34.664134
 H   30.323064   35.109259   34.880234
 C   43.487294   42.585339   32.867714
 H   43.301994   41.943739   31.994384
 H   44.554994   42.597939   33.120674
 H   42.933994   42.217139   33.740154
 H   43.156194   43.598639   32.649154
 C   43.928094   35.374619   35.709744
 H   44.500894   36.084849   36.299444
 H   42.875194   35.483819   35.946844
 H   44.090994   35.586549   34.651834
 H   44.205694   34.338409   35.942844
 C   34.669884   43.239639   41.708844
 H   35.485754   43.029239   42.378144
 H   34.760554   42.616639   40.801544
 H   34.714944   44.312539   41.450944
 H   33.738154   43.043439   42.266244
 C   38.014894   35.081539   46.501244
 H   36.913654   35.160009   46.454344
 H   38.489474   35.793069   45.812744
 H   38.411684   35.345299   47.464544
 H   38.327244   34.077999   46.249344
 C   31.494914   38.623439   38.242044
 H   31.192114   39.617939   37.984544
 H   32.004313   38.682539   39.203044
 H   30.641934   37.952639   38.287044
 H   32.215206   38.279639   37.503544
 C   40.412254   40.880939   38.697244
 H   39.599334   41.601839   38.688244
 H   40.656124   40.677739   39.757144
 H   41.274384   41.363839   38.215344
 H   40.128274   39.987539   38.138444
 C   35.408134   43.184239   31.505704
 H   35.182124   43.582139   30.517674
 H   34.769934   43.652739   32.278464
 H   36.435334   43.489239   31.727114
 H   35.298334   42.101139   31.513944
 C   33.001486   38.644939   29.886464
 H   32.330344   39.450439   30.159614
 H   32.866537   37.800939   30.568044
 H   32.813367   38.332039   28.863754
 H   34.028904   38.995339   29.927444
 C   38.381334   34.094539   39.101744
 H   38.903804   33.275349   38.578444
 H   38.753014   35.020849   38.668344
 H   37.309694   34.087789   38.877144
 H   38.622634   34.057849   40.151744
 C   41.135144   36.244269   29.435454
 H   41.221454   36.552639   30.465764
 H   40.516054   36.992349   28.948544
 H   42.131384   36.250359   28.990844
 H   40.719724   35.252609   29.320604
 C   37.882384   39.072939   29.855114
 H   37.175904   38.913339   30.662344
 H   38.859134   39.266339   30.301654
 H   37.954134   38.200839   29.192814
 H   37.599084   39.952839   29.279524
 C   42.035444   44.408839   40.605044
 H   42.333704   44.633539   39.591944
 H   41.332174   45.174639   40.944544
 H   42.921394   44.468039   41.251444
 H   41.634314   43.375639   40.676844
 C   38.802984   41.617739   42.029544
 H   39.159134   40.618839   41.752644
 H   39.325384   42.018939   42.933344
 H   37.711274   41.551639   42.211544
 H   39.000634   42.300839   41.175744
 C   42.012754   39.330139   35.346544
 H   42.166724   39.742039   36.350044
 H   42.819394   39.639939   34.691854
 H   41.979284   38.246439   35.411944
 H   41.028834   39.655039   34.938744
 C   40.147624   37.409539   32.844114
 H   39.551544   36.690349   32.275984
 H   40.614524   38.179639   32.218984
 H   40.944734   36.868619   33.350554
 H   39.569184   37.918639   33.621224
 C   42.095004   37.065239   39.103044
 H   42.353364   36.655529   40.073544
 H   42.982194   36.998019   38.436944
 H   41.787514   38.098039   39.223144
 H   41.266284   36.480449   38.720944
 C   35.407784   40.027539   34.195814
 H   35.255094   41.105339   34.125934
 H   34.486584   39.545139   33.918204
 H   36.177414   39.718539   33.507294
 H   35.629584   39.701639   35.217044
 C   36.094174   36.696609   33.057544
 H   36.011064   35.620489   32.978604
 H   35.358544   37.175939   32.398374
 H   35.894844   37.022839   34.093454
 H   37.084004   37.025939   32.751284
 C   43.978994   37.845139   31.898644
 H   43.642594   38.054139   30.898134
 H   44.830894   37.142339   31.853004
 H   44.174594   38.799739   32.387254
 H   43.187794   37.302039   32.429174
 C   39.316384   34.640239   35.277744
 H   39.537204   33.702369   34.786954
 H   38.391074   34.522879   35.850144
 H   40.161004   34.905059   35.902744
 H   39.144624   35.380339   34.514524
 C   40.316554   35.926549   42.495244
 H   40.679654   36.825529   42.036444
 H   40.660284   35.059669   41.939544
 H   40.680434   35.872679   43.511644
 H   39.252124   35.964709   42.487744
 C   38.104974   38.130439   40.235744
 H   37.955554   38.038039   41.292844
 H   38.911194   38.865639   40.099144
 H   38.398754   37.180739   39.803544
 H   37.166574   38.450439   39.779044
 C   38.087114   45.340439   43.527844
 H   38.570344   44.389039   43.797644
 H   37.742574   45.899139   44.396844
 H   37.205714   45.103839   42.913544
 H   38.813364   45.937439   42.940944
 C   43.799894   34.920359   42.431944
 H   43.011194   34.166399   42.282844
 H   44.509694   34.853049   41.605944
 H   43.347794   35.913269   42.466744
 H   44.361894   34.732759   43.353744
 C   41.772084   31.648809   35.875544
 H   42.638094   32.281519   35.690244
 H   40.957984   32.272139   36.274144
 H   41.461874   31.179209   34.926244
 H   42.034004   30.862599   36.610544
 C   44.199894   40.284839   39.368744
 H   43.866094   39.414039   38.814344
 H   44.042994   41.197539   38.827544
 H   43.732794   40.319639   40.360744
 H   45.267794   40.148039   39.458244
 C   34.110874   30.254889   37.391144
 H   33.827134   29.457739   38.048244
 H   35.187144   30.303719   37.495744
 H   33.609994   31.188939   37.680244
 H   33.822034   30.001459   36.372144
 C   38.523344   32.088779   42.766044
 H   39.357414   32.815369   42.842344
 H   38.917494   31.080009   42.836144
 H   37.773104   32.255289   43.573644
 H   38.049904   32.263249   41.788344
 C   36.494534   43.765339   35.375044
 H   37.062214   42.890139   35.079244
 H   36.758404   44.642639   34.769644
 H   36.655144   43.987939   36.415444
 H   35.465904   43.538939   35.227344
 C   31.698503   40.842839   44.104844
 H   31.520814   39.803639   43.806244
 H   31.942932   40.887439   45.154044
 H   32.567706   41.199339   43.531144
 H   30.803014   41.421339   43.905044
 C   34.829664   32.619229   40.755544
 H   35.169094   32.281519   41.730344
 H   35.296704   32.000369   39.988944
 H   33.758164   32.526849   40.643544
 H   35.117954   33.641099   40.623844
 C   35.008704   34.042689   36.086144
 H   33.918044   34.130439   36.038644
 H   35.323204   33.020379   35.954044
 H   35.446934   34.668879   35.315044
 H   35.351714   34.422719   37.050344
 C   33.514608   33.901579   32.151314
 H   34.196834   33.134039   31.713654
 H   32.501168   33.767969   31.805584
 H   33.840414   34.903249   31.883644
 H   33.531671   33.856439   33.249204
 C   38.450234   38.199439   36.264944
 H   38.325574   39.151539   35.751444
 H   38.275934   38.343239   37.302944
 H   37.738174   37.443839   35.895344
 H   39.471424   37.866339   36.142644
 C   39.852354   30.255069   38.915644
 H   40.309444   29.268009   38.871644
 H   40.628774   30.961519   39.242844
 H   39.045634   30.240239   39.652844
 H   39.403244   30.499539   37.953944
 C   36.269414   35.555399   42.826644
 H   36.866434   35.912199   43.655944
 H   36.253954   36.295819   42.052444
 H   36.797044   34.685269   42.445944
 H   35.271754   35.290429   43.200344
 C   36.370514   38.758939   48.333144
 H   37.016964   39.641039   48.232744
 H   36.908054   37.902739   47.932844
 H   36.062914   38.578439   49.363644
 H   35.491014   38.881639   47.740544
 C   35.026834   37.314039   37.693144
 H   34.688574   36.716289   36.834344
 H   36.020324   36.954489   38.052044
 H   34.298834   37.275039   38.488344
 H   35.127164   38.348339   37.342344
