#total energy=-3.74870044 eV

CRYSTAL
PRIMVEC
        75.9000000            0.00000000           0.00000000
        0.00000000            75.9000000           0.00000000
        0.00000000            0.00000000           75.9000000
PRIMCOORD
320 1
 C   30.645725   40.955017   33.699468
 H   30.480065   40.859517   34.773358
 H   31.334285   41.775317   33.511568
 H   29.718485   41.199417   33.171248
 H   31.048525   40.041218   33.290318
 C   38.224485   34.420378   31.524468
 H   38.901445   35.282528   31.615488
 H   37.340245   34.725898   30.923828
 H   37.836105   34.085667   32.501168
 H   38.727735   33.581508   31.030718
 C   35.456405   34.393257   47.589838
 H   36.174675   35.211067   47.734638
 H   34.499065   34.611128   48.094038
 H   35.342205   34.272748   46.520238
 H   35.890795   33.462938   47.987038
 C   38.410525   42.602317   33.069408
 H   39.255435   42.257217   33.651688
 H   37.852155   43.250417   33.747248
 H   38.702975   43.108518   32.151588
 H   37.770055   41.726218   32.841558
 C   39.188765   38.723318   45.985238
 H   39.454345   39.146617   44.998738
 H   38.100025   38.474117   45.997438
 H   39.765255   37.823518   46.154938
 H   39.369475   39.455717   46.759138
 C   29.931925   34.608288   38.573238
 H   29.627845   34.936208   37.594838
 H   29.918095   35.423788   39.295238
 H   29.241375   33.880857   38.956538
 H   30.911595   34.196818   38.525738
 C   35.083405   31.161288   40.742738
 H   35.474945   30.604817   39.900638
 H   35.848105   31.903647   41.026438
 H   34.141395   31.664378   40.509338
 H   34.939785   30.499968   41.614338
 C   40.333985   43.503518   44.204838
 H   40.347885   43.011218   45.176538
 H   41.224555   44.118117   44.083638
 H   39.426195   44.100617   44.114738
 H   40.348865   42.798417   43.392938
 C   38.858525   30.900697   39.847338
 H   38.553535   31.781537   39.278138
 H   39.031705   30.065777   39.164238
 H   39.777455   31.078917   40.396538
 H   38.110235   30.678238   40.579338
 C   36.703395   43.135517   28.701718
 H   36.445635   42.788917   29.716148
 H   37.387485   43.965518   28.808528
 H   37.207295   42.336917   28.148718
 H   35.782135   43.462118   28.183258
 C   33.823405   43.488417   40.482538
 H   34.150135   43.627517   39.459138
 H   34.217805   44.284418   41.106438
 H   32.746140   43.518618   40.488438
 H   34.182995   42.561217   40.901238
 C   37.594145   37.446317   38.597438
 H   38.654035   37.273718   38.494038
 H   37.173975   37.709518   37.638538
 H   37.436455   38.264418   39.294638
 H   37.121725   36.532407   38.941038
 C   36.756545   41.940618   45.367638
 H   36.295475   42.885717   45.169938
 H   36.479295   41.569717   46.367338
 H   37.840225   42.069418   45.281238
 H   36.433355   41.259518   44.572038
 C   42.649045   37.917617   45.546738
 H   42.736045   37.463017   44.575838
 H   42.372135   37.118718   46.261438
 H   41.919275   38.738917   45.518038
 H   43.611545   38.344918   45.842138
 C   40.329455   43.629717   36.094538
 H   40.589865   44.245317   35.223238
 H   41.134585   43.725617   36.830938
 H   39.378595   43.942617   36.493938
 H   40.232935   42.564718   35.797238
 C   35.174595   33.018068   34.018578
 H   35.241545   33.882728   34.687918
 H   34.889475   32.119748   34.592388
 H   34.441985   33.247498   33.246558
 H   36.129375   32.808937   33.535348
 C   38.097695   31.520148   36.250638
 H   38.941105   32.110267   36.624138
 H   37.277035   32.203268   36.070738
 H   37.763035   30.757147   36.974638
 H   38.384625   31.050697   35.331038
 C   38.107295   39.173817   42.029038
 H   38.671025   38.321517   41.623138
 H   37.177645   39.303317   41.496738
 H   37.917605   39.008018   43.075638
 H   38.695775   40.085518   41.913038
 C   37.244265   31.414597   43.981638
 H   37.791755   31.183477   44.921738
 H   36.641555   30.518667   43.676838
 H   36.559665   32.206187   44.192838
 H   37.920755   31.684427   43.159638
 C   37.577795   34.800708   41.944938
 H   36.648735   34.479788   41.439238
 H   37.449235   34.739697   43.012938
 H   38.404365   34.183278   41.676238
 H   37.820325   35.812897   41.631438
 C   32.303369   36.542707   32.886038
 H   32.514803   37.255018   32.078008
 H   33.135602   35.842818   33.097478
 H   31.441345   35.947848   32.562638
 H   32.062838   37.086917   33.794418
 C   39.070225   30.717598   32.415258
 H   38.066735   31.157377   32.361918
 H   39.494925   30.622447   31.412138
 H   39.036625   29.727428   32.849848
 H   39.714165   31.363077   33.012918
 C   40.024295   34.538077   38.991738
 H   40.475495   33.827737   39.684438
 H   39.648515   34.026187   38.113538
 H   40.737695   35.256087   38.618938
 H   39.157935   35.018138   39.435538
 C   31.407165   39.323518   38.654838
 H   32.343944   38.966318   39.058438
 H   31.507755   39.541917   37.603838
 H   30.675985   38.519917   38.763938
 H   31.139895   40.216017   39.227538
 C   42.292775   42.120018   32.662408
 H   42.792745   42.522517   31.793098
 H   42.733345   41.161817   32.947438
 H   41.225725   42.077218   32.497228
 H   42.494405   42.770018   33.518308
 C   44.509945   38.201118   32.811648
 H   45.115145   37.320617   32.950638
 H   45.168045   39.055617   32.754638
 H   43.921545   38.118517   31.896298
 H   43.824545   38.360717   33.631818
 C   34.332015   42.901817   33.373198
 H   33.857575   42.092618   32.821088
 H   34.967265   42.470218   34.151088
 H   33.567299   43.488817   33.846358
 H   34.920985   43.516517   32.713678
 C   40.861085   44.807717   40.712338
 H   41.261855   43.861618   41.027538
 H   41.569865   45.581817   40.999538
 H   40.719125   44.878017   39.624538
 H   39.913415   44.973618   41.202238
 C   31.141985   33.493778   34.844958
 H   30.880515   33.186957   35.853538
 H   31.908142   32.821767   34.467428
 H   31.635642   34.479798   34.889138
 H   30.256155   33.439527   34.205718
 C   40.897645   36.588628   42.422238
 H   40.205565   36.557857   43.261338
 H   40.375355   36.228527   41.557138
 H   41.249205   37.613917   42.249538
 H   41.764475   35.931297   42.572838
 C   33.309990   31.300268   37.160438
 H   33.237835   32.252898   37.653838
 H   32.906458   31.360898   36.153938
 H   34.354595   31.014727   37.126838
 H   32.719012   30.573258   37.709238
 C   35.218695   40.372817   39.032638
 H   35.448405   39.382317   38.620538
 H   34.342475   40.790717   38.529338
 H   36.091985   40.963918   38.790438
 H   35.092435   40.278617   40.128238
 C   39.718575   41.212117   29.794598
 H   40.788475   41.162217   29.945728
 H   39.414555   42.248717   29.823398
 H   39.240725   40.624918   30.594898
 H   39.522345   40.779418   28.799998
 C   38.036305   37.749318   29.664668
 H   37.252455   37.163418   30.138188
 H   37.589925   38.546418   29.029858
 H   38.606915   38.226917   30.458018
 H   38.704025   37.167918   29.033488
 C   41.907515   40.219117   35.799038
 H   41.019455   40.339218   35.137838
 H   42.070645   39.182417   36.082538
 H   42.776245   40.561518   35.249238
 H   41.812575   40.815418   36.715638
 C   35.226255   39.902718   31.008748
 H   35.973345   40.410018   30.405588
 H   35.198045   38.829818   30.828618
 H   35.472175   40.025717   32.031218
 H   34.275445   40.358317   30.819868
 C   34.067125   39.663018   35.184338
 H   32.975324   39.468018   35.132938
 H   34.236815   40.599317   35.714838
 H   34.515605   38.846018   35.736238
 H   34.535855   39.712618   34.191948
 C   35.769305   37.026218   44.730738
 H   34.926745   36.377308   44.506238
 H   35.928805   37.042118   45.802638
 H   35.522905   38.063018   44.491338
 H   36.674965   36.694327   44.215438
 C   34.322115   36.989528   40.880238
 H   33.725755   36.157007   40.525038
 H   34.690055   37.582118   40.049138
 H   35.148845   36.594477   41.419438
 H   33.661285   37.558118   41.525638
 C   37.894335   40.276618   35.787138
 H   38.655495   39.728718   36.318138
 H   37.952095   40.042118   34.722668
 H   36.922905   39.963117   36.137938
 H   38.024315   41.342118   35.926838
 C   40.611855   38.142018   32.927678
 H   41.386505   38.055217   33.716338
 H   39.760495   37.552118   33.259878
 H   41.010175   37.710518   32.015728
 H   40.412015   39.181618   32.710928
 C   37.227895   43.418518   41.709638
 H   36.638105   42.559418   42.033738
 H   37.073265   43.605717   40.640838
 H   38.289055   43.222718   41.849838
 H   36.999085   44.246417   42.348838
 C   33.772125   36.305098   37.146338
 H   33.940995   36.245447   36.077438
 H   33.543408   35.285517   37.451838
 H   34.639685   36.677667   37.692638
 H   32.938999   36.977207   37.345038
 C   42.353775   34.430988   32.459038
 H   42.083005   33.906447   33.377638
 H   42.622645   33.701327   31.695028
 H   41.470095   35.016607   32.130938
 H   43.177245   35.125467   32.660818
 C   35.798705   44.045317   36.860738
 H   35.154035   44.612217   36.197038
 H   36.825965   44.130617   36.499138
 H   35.733105   44.490217   37.849538
 H   35.506085   42.991017   36.889238
 C   39.422315   41.409418   39.364838
 H   40.041635   41.099418   40.204738
 H   38.400095   41.057018   39.527538
 H   39.436105   42.474517   39.277438
 H   39.824395   40.958917   38.474138
 C   42.188465   40.502617   42.737738
 H   42.967845   39.815717   43.077738
 H   42.240345   40.663718   41.649838
 H   41.191065   40.123217   42.963438
 H   42.271315   41.448617   43.233338
 C   42.219485   38.359817   39.304938
 H   41.822245   39.365617   39.321638
 H   42.785545   38.222617   40.205038
 H   41.429665   37.629917   39.356538
 H   42.831045   38.192518   38.416838
 C   34.205125   40.440317   42.876938
 H   33.891385   40.040217   43.816938
 H   34.125505   41.520917   42.882238
 H   33.542532   40.023018   42.126438
 H   35.228755   40.115018   42.666238
 C   38.818055   34.882377   45.774538
 H   39.403335   34.753997   44.869438
 H   39.304375   34.409337   46.633338
 H   38.641875   35.953407   45.990238
 H   37.897925   34.345287   45.629638
 C   44.870145   42.977218   35.399738
 H   44.875045   43.071618   34.313438
 H   45.219645   43.927118   35.770638
 H   43.882545   42.750917   35.782338
 H   45.529845   42.135717   35.666038
 C   31.846710   42.989317   37.020938
 H   31.010275   42.586917   37.590638
 H   32.365841   42.204217   36.483938
 H   31.413395   43.693717   36.284938
 H   32.550080   43.520018   37.616938
 C   44.805145   37.067518   41.731338
 H   44.026745   36.341788   41.830138
 H   45.136145   37.172218   40.694738
 H   45.680445   36.751587   42.322738
 H   44.435445   38.020718   42.063838
 C   46.345745   40.242117   41.068838
 H   45.805345   41.063518   41.534638
 H   47.313745   40.600617   40.669338
 H   46.538245   39.473618   41.813338
 H   45.677345   39.770618   40.345838
 C   29.231145   37.617717   35.611838
 H   28.675705   36.722117   35.356238
 H   29.441825   38.119217   34.679578
 H   30.159325   37.271718   36.039738
 H   28.713155   38.272617   36.299038
 C   35.983935   33.821317   38.324338
 H   35.561785   34.452317   39.085338
 H   37.042185   33.723557   38.510838
 H   35.544345   32.806267   38.333338
 H   35.859235   34.267297   37.332138
 C   43.791745   33.678387   40.179838
 H   42.910445   34.138607   40.564638
 H   44.625445   34.165977   40.704338
 H   43.822645   32.629958   40.423638
 H   43.860945   33.804037   39.092138
 C   42.367175   32.305377   36.690438
 H   41.904685   32.918478   35.903338
 H   41.787535   31.386187   36.789438
 H   43.392745   32.102818   36.385138
 H   42.330525   32.826017   37.674138
 C   45.406945   38.879418   37.259038
 H   46.044645   39.645117   37.670038
 H   45.209845   38.156017   38.032038
 H   45.909845   38.395317   36.438938
 H   44.445645   39.339618   36.955738
 C   36.204655   36.911687   33.799448
 H   36.340805   36.808557   34.858108
 H   37.077785   37.420118   33.377268
 H   36.100835   35.917488   33.381318
 H   35.266435   37.451017   33.572108
 C   43.138045   42.572817   39.251638
 H   42.179305   42.195017   38.884238
 H   43.920545   42.080317   38.652038
 H   43.309845   42.287318   40.257138
 H   43.188345   43.634718   39.106538
 C   42.983345   35.823647   35.905238
 H   42.425065   35.962888   36.824638
 H   43.590945   34.920808   36.019738
 H   42.296045   35.751038   35.035238
 H   43.610845   36.673828   35.711738
 C   33.783865   33.999367   42.654538
 H   32.927212   34.651677   42.815938
 H   34.695675   34.411448   43.096138
 H   33.567488   33.027577   43.072338
 H   33.914635   33.905718   41.572238
 C   38.846055   35.371158   35.682738
 H   39.635645   34.633468   35.563338
 H   39.294635   36.343547   35.562838
 H   38.408235   35.318787   36.677238
 H   38.068435   35.205458   34.938138
