#total energy=-4.382861 eV

CRYSTAL
PRIMVEC
        75.9000000            0.00000000           0.00000000
        0.00000000            75.9000000           0.00000000
        0.00000000            0.00000000           75.9000000
PRIMCOORD
320 1
 C   40.432626   39.658765   32.628263
 H   40.124326   40.679775   32.853823
 H   39.671696   38.957655   32.969973
 H   41.367326   39.464125   33.144493
 H   40.623926   39.535355   31.564843
 C   38.156646   37.829415   46.348553
 H   37.294276   38.045305   46.974753
 H   38.891736   37.269025   46.913653
 H   38.600706   38.760585   46.030653
 H   37.871666   37.230025   45.473553
 C   34.735996   36.010485   39.586663
 H   35.435006   35.810365   38.759763
 H   35.303896   36.032995   40.506653
 H   34.301366   37.000625   39.441713
 H   33.968176   35.261855   39.658683
 C   33.891416   39.144175   32.918033
 H   32.968786   39.682315   33.178683
 H   33.657446   38.079535   32.754763
 H   34.299206   39.579675   32.001253
 H   34.594456   39.217255   33.734983
 C   41.333326   36.716105   43.652753
 H   40.544926   37.238445   44.184153
 H   40.858626   36.088765   42.895953
 H   42.004726   37.419815   43.182653
 H   41.923726   36.098615   44.333253
 C   37.517596   39.889625   34.918053
 H   37.904416   40.881575   34.661923
 H   38.334906   39.266495   35.284983
 H   36.774516   39.985675   35.706403
 H   37.075116   39.414205   34.033763
 C   39.336586   40.157175   28.800075
 H   39.249166   40.850675   29.633970
 H   39.804216   39.224205   29.138468
 H   38.318836   39.890725   28.487453
 H   39.880086   40.615275   27.956973
 C   39.133796   44.656275   42.796653
 H   38.449226   44.965375   43.585853
 H   40.080426   45.153675   42.962653
 H   38.742506   44.963075   41.851253
 H   39.236216   43.564275   42.848753
 C   30.605993   40.610475   35.542323
 H   30.166276   41.252275   34.773153
 H   30.604460   41.096075   36.511113
 H   30.010506   39.707665   35.581583
 H   31.630636   40.319475   35.279623
 C   30.054584   39.822345   39.974853
 H   29.599255   40.378275   39.164983
 H   29.559710   38.866805   40.059453
 H   31.105686   39.632875   39.750553
 H   29.959280   40.371175   40.917253
 C   32.446796   41.697175   43.331853
 H   32.304616   41.209175   42.372253
 H   31.941956   42.662175   43.297153
 H   31.975106   41.043975   44.049253
 H   33.484736   41.820275   43.548353
 C   35.642526   31.632855   40.836553
 H   34.885406   30.938155   40.480853
 H   36.527126   31.088735   41.144053
 H   35.212136   32.164675   41.678953
 H   35.894706   32.376755   40.089553
 C   39.930226   31.516565   39.662573
 H   39.693156   31.849245   38.651753
 H   39.163686   31.801985   40.410353
 H   40.892926   31.907025   39.977053
 H   39.949226   30.419940   39.640153
 C   34.604466   39.961075   40.927353
 H   34.773726   39.818995   41.977953
 H   33.626346   39.587105   40.627553
 H   35.408256   39.473185   40.401753
 H   34.675226   41.030875   40.699653
 C   35.558956   44.469275   41.324253
 H   35.524946   44.661275   40.244253
 H   34.608316   44.006575   41.626853
 H   36.352706   43.770075   41.588853
 H   35.757746   45.395375   41.847653
 C   37.469156   38.018335   38.073743
 H   37.728716   39.065655   38.016033
 H   38.046016   37.463605   37.350383
 H   37.747396   37.626125   39.073513
 H   36.385326   37.887925   37.931673
 C   44.271826   40.862775   38.128733
 H   43.699426   39.953575   38.258763
 H   43.578126   41.713075   38.103033
 H   44.759926   40.806075   37.159953
 H   45.005326   40.990375   38.899253
 C   37.294896   37.766285   31.292763
 H   36.498076   37.618585   30.552050
 H   38.075376   37.021675   31.165623
 H   37.746136   38.741805   31.155303
 H   36.869206   37.687565   32.298963
 C   38.939456   44.899375   38.292573
 H   38.350826   45.736075   38.651413
 H   38.448936   43.948175   38.496283
 H   39.117926   45.052275   37.209363
 H   39.892426   44.922875   38.795373
 C   40.379526   41.493775   37.280963
 H   41.242526   40.857875   37.427453
 H   39.655286   41.383275   38.087963
 H   40.738526   42.517375   37.223343
 H   39.910926   41.258275   36.325073
 C   42.731626   34.331045   34.572433
 H   41.869526   33.929735   35.104143
 H   43.159426   33.508005   34.008373
 H   43.449526   34.691035   35.281413
 H   42.422626   35.107805   33.900533
 C   38.576286   35.003265   41.003153
 H   38.536966   35.108095   42.093553
 H   38.719556   36.011615   40.611553
 H   37.613856   34.659945   40.641853
 H   39.363066   34.315965   40.658953
 C   34.107156   42.523475   35.076363
 H   33.509176   42.350275   34.171403
 H   34.509616   43.530475   35.075903
 H   34.945396   41.832075   35.062103
 H   33.535486   42.397675   35.993663
 C   32.255536   33.631385   41.695453
 H   32.047246   34.692435   41.531853
 H   31.346976   33.098925   41.966953
 H   32.714196   33.228245   40.795253
 H   32.963146   33.536695   42.505053
 C   38.520106   30.712537   43.485153
 H   39.169046   30.154867   42.791353
 H   38.461266   31.757235   43.123653
 H   38.970796   30.685449   44.488153
 H   37.512656   30.294488   43.512253
 C   36.640286   41.653375   31.510193
 H   36.434726   41.084275   30.614537
 H   37.551516   41.299275   31.962903
 H   36.693406   42.699775   31.216123
 H   35.839006   41.542575   32.240633
 C   41.364326   36.132615   30.908373
 H   40.570826   36.363625   30.170812
 H   42.308626   35.875115   30.390858
 H   41.080426   35.278425   31.530263
 H   41.551126   37.010855   31.503423
 C   36.613316   41.704075   44.318353
 H   36.530306   42.778875   44.223653
 H   37.606066   41.500775   44.738153
 H   35.836836   41.305275   44.995053
 H   36.501396   41.206675   43.348153
 C   32.666166   42.355175   38.942193
 H   32.333776   41.970575   39.895253
 H   31.880056   43.013375   38.541573
 H   32.901896   41.557375   38.251023
 H   33.576106   42.955775   39.074483
 C   40.134726   31.481555   35.937043
 H   39.898426   32.472765   36.334643
 H   39.547426   30.737733   36.493193
 H   39.860846   31.463545   34.899923
 H   41.206026   31.258205   36.031263
 C   36.579346   30.445248   37.334843
 H   37.495796   30.509289   37.926383
 H   35.786046   30.982315   37.845883
 H   36.743596   30.899150   36.358073
 H   36.274276   29.417486   37.187003
 C   31.964866   37.476215   42.518353
 H   31.073186   37.364595   41.926553
 H   31.889586   36.775415   43.356553
 H   32.043076   38.485145   42.887753
 H   32.843196   37.240785   41.917453
 C   39.958626   32.381135   31.770833
 H   39.239976   33.117365   31.419433
 H   40.693826   32.262715   30.972633
 H   39.469016   31.421735   32.007563
 H   40.494926   32.785145   32.620023
 C   38.167786   41.402675   40.762353
 H   38.598406   41.289675   41.746453
 H   38.364656   40.532175   40.146153
 H   37.093826   41.516075   40.871453
 H   38.557046   42.292175   40.281653
 C   40.880126   38.897515   39.921353
 H   40.135826   39.017015   39.125543
 H   41.037926   39.854055   40.411053
 H   40.491626   38.183915   40.637153
 H   41.808826   38.537505   39.500003
 C   33.472816   38.882475   37.254483
 H   33.946536   39.432635   38.063823
 H   33.635436   37.817285   37.361473
 H   32.416646   39.092315   37.252963
 H   33.935186   39.214925   36.325723
 C   35.511846   36.502525   35.214483
 H   34.441856   36.555405   35.419803
 H   35.689576   36.310065   34.163733
 H   35.966286   37.457695   35.470033
 H   35.955696   35.704315   35.797293
 C   41.458626   32.750635   43.071653
 H   42.453126   33.167965   43.219553
 H   40.828026   33.555685   42.706253
 H   41.090126   32.323715   44.005653
 H   41.480226   31.978415   42.313453
 C   35.185856   35.062085   43.592153
 H   34.307946   35.698605   43.405153
 H   35.559866   34.726315   42.626653
 H   34.860276   34.220515   44.199553
 H   35.948006   35.604645   44.151153
 C   37.420896   38.126005   42.487553
 H   37.163756   38.697765   43.374653
 H   38.248466   37.468915   42.704853
 H   36.551916   37.526165   42.185253
 H   37.698256   38.809035   41.693053
 C   34.312576   38.503275   45.216453
 H   34.222226   39.097045   44.307153
 H   34.254266   39.151165   46.095653
 H   35.271876   37.961935   45.219153
 H   33.481626   37.805025   45.250553
 C   43.171026   35.150515   40.729653
 H   42.456126   35.778675   40.195853
 H   42.761926   34.144685   40.810853
 H   43.331926   35.619005   41.712453
 H   44.114026   35.155345   40.210653
 C   40.706926   35.311965   37.764133
 H   41.708726   35.375595   37.320773
 H   39.947426   35.469605   37.012203
 H   40.559126   34.334975   38.205493
 H   40.584526   36.085565   38.530893
 C   39.000646   35.779465   34.159403
 H   39.769506   36.432045   33.717003
 H   38.200276   35.599095   33.451883
 H   39.450346   34.830595   34.431913
 H   38.612256   36.266305   35.050353
 C   38.453846   34.150785   45.164453
 H   37.775396   33.945675   44.350453
 H   39.281926   34.753735   44.794353
 H   37.942446   34.699795   45.931853
 H   38.855896   33.192745   45.495353
 C   41.248026   38.296285   35.938503
 H   42.128126   38.611185   36.488663
 H   40.820226   39.131045   35.393503
 H   41.509426   37.471365   35.278583
 H   40.513626   37.917415   36.649963
 C   43.422526   32.381745   38.047883
 H   43.867326   32.520755   39.025943
 H   44.136226   31.936675   37.352303
 H   42.565426   31.723435   38.146223
 H   43.076526   33.331755   37.633283
 C   33.306646   33.785175   36.515303
 H   33.649136   33.651155   35.490513
 H   33.844716   34.586825   36.977103
 H   32.259516   34.021795   36.509623
 H   33.479166   32.868125   37.096483
 C   36.477846   32.944755   33.659543
 H   35.621046   32.273175   33.647163
 H   36.619986   33.349765   32.668743
 H   37.370546   32.368995   33.944393
 H   36.264726   33.732245   34.369983
 C   44.454026   37.041365   37.382863
 H   43.524826   37.117085   37.972623
 H   44.211726   36.932905   36.325363
 H   45.052826   37.935645   37.527273
 H   45.020826   36.174045   37.710633
 C   43.545126   40.583175   30.563768
 H   43.803826   39.877215   29.799281
 H   42.532726   40.942975   30.410806
 H   43.583026   40.064875   31.501173
 H   44.241026   41.424475   30.553921
 C   37.258066   33.852455   37.656513
 H   37.689776   34.826815   37.812623
 H   36.158706   33.827325   37.701933
 H   37.619206   33.501115   36.675353
 H   37.695276   33.216255   38.435333
 C   37.872726   43.780475   34.352883
 H   38.461556   43.521475   35.258653
 H   38.501296   43.608275   33.486823
 H   37.573926   44.831875   34.401423
 H   37.011996   43.128975   34.232043
 C   40.241926   43.408575   30.849493
 H   40.583026   42.613875   31.517323
 H   39.149106   43.465675   30.876493
 H   40.604926   44.367875   31.179043
 H   40.554626   43.238275   29.840513
 C   34.096666   35.386505   31.792393
 H   34.342486   34.429995   31.344613
 H   34.951376   36.055835   31.732993
 H   33.833406   35.210415   32.826423
 H   33.262996   35.822205   31.230573
 C   44.306926   37.340175   32.989973
 H   44.631126   36.369325   33.373983
 H   44.244726   37.363805   31.916073
 H   43.357826   37.566035   33.448963
 H   45.031626   38.086505   33.298263
 C   36.364696   42.121375   37.832523
 H   35.478766   41.517775   37.574193
 H   36.286416   42.519575   38.846143
 H   37.245146   41.487075   37.730833
 H   36.475216   42.954175   37.150603
 C   41.909326   42.929275   40.614353
 H   41.287326   43.134575   39.736853
 H   42.849526   42.514275   40.280753
 H   42.061926   43.826475   41.210453
 H   41.381126   42.200275   41.201453
 C   31.212106   36.749445   34.724003
 H   31.682336   36.047495   34.035233
 H   31.489936   37.757735   34.418483
 H   31.539426   36.573585   35.717633
 H   30.129436   36.630525   34.651133
 C   42.478526   44.573775   36.548493
 H   43.370026   45.142875   36.290523
 H   42.544226   44.218275   37.566343
 H   41.606326   45.208275   36.410113
 H   42.386626   43.704375   35.882343
 C   43.212426   41.134375   34.539113
 H   43.010026   41.720175   33.642573
 H   42.269426   40.986275   35.062003
 H   43.917026   41.677675   35.184493
 H   43.593926   40.149075   34.264153
 C   40.342926   40.389875   43.866453
 H   40.419226   41.475475   43.881953
 H   40.696026   39.965175   44.774653
 H   39.301166   40.099975   43.703553
 H   40.927726   39.992375   43.034253
 C   44.488726   38.563335   41.458053
 H   44.872626   37.744995   42.064053
 H   44.078926   38.155655   40.550653
 H   43.727626   39.131795   41.988153
 H   45.272726   39.264515   41.158153
 C   30.980196   36.355055   38.821943
 H   30.260669   36.709945   38.094303
 H   30.462375   35.796195   39.597713
 H   31.497196   37.205085   39.292533
 H   31.750816   35.750335   38.321073
