#total energy=-4.589562 eV

CRYSTAL
PRIMVEC
        75.9000000            0.00000000           0.00000000
        0.00000000            75.9000000           0.00000000
        0.00000000            0.00000000           75.9000000
PRIMCOORD
320 1
 C   41.768932   38.900715   38.714257
 H   41.756432   37.929245   39.217217
 H   42.284732   39.631835   39.315587
 H   40.728632   39.208965   38.528537
 H   42.314332   38.802645   37.768407
 C   34.646602   45.898595   37.666867
 H   35.269332   46.588395   37.115897
 H   33.596302   46.101295   37.464877
 H   34.848612   45.995495   38.731167
 H   34.880352   44.878295   37.311787
 C   38.056712   30.727434   33.912987
 H   37.044362   30.382132   33.715937
 H   38.634022   29.887408   34.283087
 H   38.495902   31.082341   32.982947
 H   38.040332   31.502565   34.656757
 C   31.875882   39.181935   40.975287
 H   31.234372   40.064125   40.858887
 H   32.676912   39.266495   40.246487
 H   32.266562   39.144585   41.997987
 H   31.279312   38.299525   40.802887
 C   42.293632   43.268895   38.501367
 H   42.439232   43.221895   37.411147
 H   42.276432   42.260695   38.921317
 H   43.125232   43.824495   38.913667
 H   41.335732   43.783195   38.699897
 C   36.163102   42.201595   37.857007
 H   36.446662   41.158695   37.920497
 H   35.235542   42.245595   37.277457
 H   35.990242   42.623195   38.847797
 H   36.940722   42.773195   37.331497
 C   33.033472   42.087295   43.382087
 H   32.988482   43.168095   43.289687
 H   32.013002   41.700895   43.277387
 H   33.666842   41.632395   42.611587
 H   33.438992   41.807095   44.350487
 C   33.988212   33.005965   40.488587
 H   34.571322   33.113055   41.402687
 H   33.978662   31.953415   40.188787
 H   34.392042   33.643515   39.712877
 H   32.958332   33.273595   40.672687
 C   38.239882   34.853515   31.147617
 H   38.115142   33.844925   31.537327
 H   37.876612   34.928995   30.124238
 H   37.719832   35.575325   31.757437
 H   39.294782   35.088855   31.149177
 C   41.382432   36.139635   44.719287
 H   41.173132   35.114145   45.037187
 H   40.990132   36.837555   45.464787
 H   42.463132   36.263365   44.632387
 H   40.916132   36.329585   43.761787
 C   40.831032   40.001635   44.263187
 H   40.528332   40.306795   43.259187
 H   41.327632   39.043995   44.268987
 H   41.534732   40.756695   44.640087
 H   39.965372   39.977795   44.933587
 C   35.996302   31.346965   36.946907
 H   36.805132   32.072815   36.989107
 H   35.096602   31.751235   37.424487
 H   36.306222   30.421227   37.451917
 H   35.798752   31.140456   35.895587
 C   41.812332   32.001625   34.844557
 H   40.829332   31.601035   35.055987
 H   41.866332   32.254415   33.787307
 H   42.570432   31.245035   35.029747
 H   41.977332   32.901885   35.418407
 C   45.026032   34.277995   35.496757
 H   44.008232   34.465385   35.844157
 H   44.982832   33.825295   34.501857
 H   45.532632   33.597595   36.183527
 H   45.562732   35.239385   35.447867
 C   32.016212   32.180025   36.860377
 H   30.933303   32.293275   37.047377
 H   32.221592   32.649825   35.900527
 H   32.600692   32.649215   37.663107
 H   32.255292   31.115363   36.791387
 C   37.936362   38.101975   37.629687
 H   37.644712   38.733425   36.802237
 H   37.245572   37.244685   37.680227
 H   38.952872   37.718815   37.499767
 H   37.885882   38.672195   38.555197
 C   45.164332   40.607295   38.284937
 H   46.138732   40.422195   37.855577
 H   45.035332   41.682295   38.377297
 H   45.110232   40.098265   39.256757
 H   44.387632   40.191495   37.610577
 C   40.378532   38.104535   30.800638
 H   41.144132   38.625915   31.363997
 H   40.075132   38.708915   29.930001
 H   40.758232   37.130275   30.475317
 H   39.496712   37.960815   31.407467
 C   33.129052   42.599495   35.248817
 H   33.716042   41.691595   35.354317
 H   32.540252   42.568195   34.323657
 H   32.477192   42.726895   36.117397
 H   33.813202   43.461895   35.210907
 C   35.504102   36.748245   40.744187
 H   35.801942   37.010875   41.751087
 H   34.465382   37.053595   40.608987
 H   36.145892   37.300105   40.040607
 H   35.617772   35.679115   40.588487
 C   35.396422   43.083595   31.706567
 H   34.676272   42.372795   31.285037
 H   35.182002   43.216595   32.753737
 H   35.233152   44.042395   31.197417
 H   36.419322   42.743195   31.548037
 C   40.966032   31.209405   41.293887
 H   40.644732   31.897815   40.514387
 H   41.073132   30.215527   40.857087
 H   40.227732   31.141855   42.100887
 H   41.921532   31.518245   41.717287
 C   31.447962   35.737235   38.648837
 H   31.485532   35.349515   37.621537
 H   31.320182   36.820245   38.618737
 H   32.375882   35.484295   39.120937
 H   30.612291   35.279925   39.193297
 C   42.075532   34.927345   40.926587
 H   42.922532   35.636245   41.012587
 H   41.819532   34.524355   41.905287
 H   41.235432   35.460525   40.477087
 H   42.329432   34.110875   40.269087
 C   37.448912   41.272195   44.066987
 H   36.571682   41.688795   43.605487
 H   37.878612   40.541295   43.369387
 H   37.150602   40.779095   44.983687
 H   38.220972   42.019495   44.253887
 C   39.815462   41.459895   36.619747
 H   39.835442   42.396695   37.194197
 H   38.955112   40.879595   36.944307
 H   39.718632   41.681595   35.557567
 H   40.749832   40.904995   36.765727
 C   32.005532   35.432625   42.373487
 H   31.360352   35.112565   41.556687
 H   33.036832   35.439805   42.046287
 H   31.914022   34.714625   43.198887
 H   31.709192   36.424935   42.732787
 C   34.799372   33.242245   33.736877
 H   34.217552   34.037485   33.285707
 H   34.797072   33.347395   34.823667
 H   34.361082   32.304465   33.444327
 H   35.823622   33.265895   33.361247
 C   34.977152   34.284995   44.189887
 H   34.628752   33.274575   43.999387
 H   34.169042   34.909175   44.573987
 H   35.301342   34.719435   43.245787
 H   35.788882   34.280615   44.884587
 C   42.053832   35.177025   32.738867
 H   41.063632   34.823775   33.076227
 H   42.729732   35.021485   33.572037
 H   42.370332   34.639955   31.846627
 H   41.982432   36.230365   32.478597
 C   32.879242   39.314165   32.899827
 H   33.269652   38.848215   33.796307
 H   32.772472   38.567125   32.117267
 H   31.881562   39.705985   33.103987
 H   33.514592   40.145145   32.606597
 C   34.165832   38.312205   44.278687
 H   33.990182   37.713145   43.369787
 H   33.276312   38.829755   44.607487
 H   34.949492   39.032385   44.073287
 H   34.460712   37.622115   45.057087
 C   39.534152   41.675595   32.457787
 H   40.306232   42.377095   32.760397
 H   38.548822   42.065095   32.727367
 H   39.716782   40.721095   32.966007
 H   39.558172   41.530795   31.369907
 C   37.775222   37.190365   44.819387
 H   37.426802   38.190775   45.115587
 H   37.788282   36.551835   45.714787
 H   37.077442   36.757455   44.105287
 H   38.774122   37.257125   44.374087
 C   38.435652   34.561205   35.208617
 H   37.379502   34.501425   35.491017
 H   38.828822   35.573085   35.354847
 H   39.015772   33.869115   35.811197
 H   38.549922   34.294445   34.163147
 C   41.426832   45.183795   35.319967
 H   41.187032   44.117995   35.440387
 H   41.565732   45.627495   36.305037
 H   42.358432   45.259695   34.778367
 H   40.638132   45.691695   34.775387
 C   36.410482   37.198565   33.858217
 H   37.427032   37.335405   33.477777
 H   35.705262   37.831465   33.310257
 H   36.103312   36.154445   33.671097
 H   36.379062   37.446875   34.914317
 C   34.704532   35.782555   30.671688
 H   34.348662   35.859055   29.655525
 H   35.603632   36.388925   30.794228
 H   34.972992   34.764905   30.884823
 H   33.935172   36.090435   31.394827
 C   43.673432   32.044915   38.541817
 H   44.040332   33.036965   38.263477
 H   44.409932   31.572585   39.183367
 H   43.512532   31.422045   37.651697
 H   42.748432   32.133765   39.098417
 C   34.981692   35.174105   37.160427
 H   34.110692   34.677345   36.723347
 H   35.482752   35.738025   36.376627
 H   34.672542   35.849245   37.947977
 H   35.660132   34.424525   37.534467
 C   43.763832   38.205775   42.116687
 H   43.826232   38.544835   41.085387
 H   42.769632   37.842345   42.309187
 H   43.952932   39.010705   42.826587
 H   44.501232   37.402915   42.293787
 C   45.110232   36.404935   38.818947
 H   45.082632   36.192125   39.881107
 H   45.200232   35.473715   38.270537
 H   45.960532   37.051045   38.630417
 H   44.201132   36.903865   38.490537
 C   36.456682   40.791595   34.527427
 H   36.909472   41.767495   34.711867
 H   35.973952   40.395795   35.419017
 H   35.736622   40.838295   33.725187
 H   37.265932   40.122565   34.232417
 C   41.450532   35.242425   37.216237
 H   42.470232   35.524585   37.489327
 H   41.249732   34.224995   37.548127
 H   40.758132   35.940945   37.697457
 H   41.341132   35.287045   36.144317
 C   30.588259   39.928265   36.553187
 H   30.826464   39.607485   37.579427
 H   30.741735   40.990895   36.427067
 H   31.259312   39.406445   35.865187
 H   29.542177   39.712835   36.319017
 C   38.337742   34.424805   39.265867
 H   38.080402   35.268755   39.887317
 H   37.577422   33.654595   39.407547
 H   38.345672   34.745545   38.223657
 H   39.330772   34.055315   39.558227
 C   38.481442   33.867665   42.817187
 H   37.694292   34.146285   42.097887
 H   38.276132   32.849455   43.162387
 H   39.431382   33.854595   42.308387
 H   38.499402   34.558745   43.670987
 C   36.745652   39.467835   30.715295
 H   35.708532   39.215535   30.970811
 H   36.790512   40.375395   30.094707
 H   37.323672   39.639515   31.616947
 H   37.171882   38.643085   30.149531
 C   39.638452   31.141410   37.800347
 H   39.098922   30.796582   36.916467
 H   39.427842   30.496947   38.664207
 H   39.332252   32.162565   38.018617
 H   40.718732   31.147119   37.606707
 C   43.193332   41.745595   41.879687
 H   42.747932   42.584695   41.326687
 H   44.188832   41.521395   41.502087
 H   43.278632   42.009995   42.938687
 H   42.538532   40.873595   41.780787
 C   32.568172   42.544595   39.169967
 H   32.708472   41.605495   38.625017
 H   32.430232   42.383395   40.247587
 H   33.404292   43.234395   38.974777
 H   31.650502   43.014595   38.782107
 C   40.357032   38.370805   34.630727
 H   41.066632   39.191205   34.494037
 H   40.576432   37.773925   35.519487
 H   39.340642   38.764295   34.699357
 H   40.380332   37.696535   33.767137
 C   36.570212   44.230195   41.665287
 H   36.702922   45.269995   41.373387
 H   37.121172   43.581895   40.978287
 H   35.521972   43.958495   41.603287
 H   36.933112   44.052295   42.684187
 C   39.356632   41.318495   40.487787
 H   38.805292   41.740695   41.324787
 H   39.663712   40.304895   40.731287
 H   38.703772   41.277095   39.618827
 H   40.203632   41.956695   40.219687
 C   38.582712   45.010895   38.520217
 H   38.576052   43.987695   38.907927
 H   37.565662   45.328495   38.281797
 H   39.187582   45.052095   37.617067
 H   39.021002   45.675595   39.253387
 C   43.163432   41.584595   34.194577
 H   42.163432   41.640695   34.609857
 H   43.914632   41.393195   34.968447
 H   43.179932   40.777195   33.460427
 H   43.407232   42.520595   33.697677
 C   34.195732   38.834085   37.353337
 H   34.490522   38.327915   36.431837
 H   33.217692   38.457995   37.656057
 H   34.912292   38.590155   38.154457
 H   34.156612   39.906555   37.162827
 C   39.129832   37.650325   41.525087
 H   40.054822   38.062945   41.909687
 H   39.017382   36.615925   41.882887
 H   38.308982   38.253975   41.904787
 H   39.151022   37.698295   40.431087
 C   37.075912   30.896327   40.862687
 H   38.091492   31.258105   40.991387
 H   36.576752   31.485895   40.091487
 H   36.533552   31.002467   41.804987
 H   37.074522   29.850657   40.555487
 C   32.562832   36.110615   34.650737
 H   32.335612   35.043275   34.775847
 H   32.220982   36.681115   35.515717
 H   33.640762   36.230775   34.503817
 H   32.063412   36.470855   33.751967
 C   35.601842   40.289295   40.832887
 H   35.008892   40.422295   39.920147
 H   36.534262   39.747785   40.606987
 H   35.033082   39.724195   41.590087
 H   35.867362   41.257695   41.228387
 C   40.301632   43.980795   43.074487
 H   39.572222   44.007295   43.871887
 H   40.984632   44.822095   43.160587
 H   40.837832   43.032495   43.049387
 H   39.774542   44.037395   42.131287
 C   43.902832   37.777635   35.413697
 H   44.768532   37.642155   36.063277
 H   43.549332   38.790955   35.488307
 H   44.229432   37.569675   34.390687
 H   43.120232   37.062415   35.677307
 C   37.512292   44.574795   34.891887
 H   37.608272   45.634395   34.684837
 H   36.719552   44.439395   35.605967
 H   38.458052   44.146395   35.257667
 H   37.249602   44.061295   33.976117
