#total energy=-4.3720379 eV

CRYSTAL
PRIMVEC
        75.9000000            0.00000000           0.00000000
        0.00000000            75.9000000           0.00000000
        0.00000000            0.00000000           75.9000000
PRIMCOORD
320 1
 C   36.238850   33.071757   32.372532
 H   35.500380   33.818797   32.667382
 H   37.113770   33.143707   32.995182
 H   36.551380   33.244157   31.362172
 H   35.794380   32.065197   32.471092
 C   41.403200   42.391527   35.066832
 H   40.861100   41.519727   34.713192
 H   40.739800   43.266527   34.974332
 H   42.353800   42.510127   34.527412
 H   41.627200   42.273027   36.127662
 C   35.903360   37.525277   41.472982
 H   36.575130   37.533177   40.624482
 H   34.879820   37.602097   41.078182
 H   35.997120   36.605677   42.047782
 H   36.120230   38.402717   42.079582
 C   33.535800   38.152157   38.124262
 H   33.260420   39.204257   38.030502
 H   32.831650   37.674507   38.801022
 H   33.536990   37.690437   37.124222
 H   34.541020   38.148627   38.552482
 C   37.742840   34.935987   44.651882
 H   38.663120   34.512407   44.297982
 H   37.928730   35.542817   45.523882
 H   37.293560   35.538127   43.865382
 H   37.109160   34.109267   44.943582
 C   35.439370   40.457227   35.647452
 H   36.214950   41.048727   36.174502
 H   34.825540   41.168527   35.096072
 H   35.901360   39.778097   34.921032
 H   34.805520   39.890527   36.335972
 C   38.595110   30.395815   34.756542
 H   38.579550   29.386626   35.161072
 H   38.838970   30.373779   33.687262
 H   37.617750   30.869957   34.921252
 H   39.353290   31.004217   35.263712
 C   37.767010   42.972827   34.502722
 H   38.317980   43.471127   33.713352
 H   38.195940   41.959227   34.612482
 H   36.721860   42.914027   34.215682
 H   37.883250   43.577927   35.393802
 C   33.515660   44.134627   40.591182
 H   33.299920   44.048327   41.644982
 H   34.253740   43.399627   40.277382
 H   32.625070   43.974027   40.001182
 H   33.911590   45.145327   40.387382
 C   31.856580   39.738177   41.098782
 H   32.283060   40.705427   41.376482
 H   31.518490   39.742517   40.057282
 H   32.644790   38.966917   41.202782
 H   31.027650   39.505047   41.762682
 C   40.547600   41.585527   31.488632
 H   41.052900   40.654127   31.266442
 H   39.838730   41.346227   32.276512
 H   41.288000   42.302327   31.856162
 H   40.032300   41.959127   30.608934
 C   37.672270   38.637497   45.002682
 H   37.904390   39.061417   44.034882
 H   36.705530   38.104277   44.969382
 H   37.594970   39.413487   45.758082
 H   38.432370   37.923257   45.322282
 C   41.433700   36.856257   46.181682
 H   42.470900   36.654677   46.545382
 H   41.410200   37.636437   45.432782
 H   40.851500   37.118777   47.061682
 H   41.026300   35.942987   45.764382
 C   38.606880   40.412127   41.366582
 H   39.338000   40.329427   42.156182
 H   38.584640   39.486657   40.784082
 H   38.964620   41.201627   40.672382
 H   37.636850   40.695727   41.804082
 C   41.077700   43.641327   41.256982
 H   40.154200   43.228627   40.844082
 H   41.817000   42.845327   41.335982
 H   41.440700   44.476027   40.637382
 H   40.857800   44.047827   42.252582
 C   38.091720   37.829797   37.638722
 H   38.918080   38.194567   36.998502
 H   37.903830   36.761567   37.444172
 H   38.388550   37.932417   38.681362
 H   37.222660   38.436927   37.428092
 C   36.638090   42.773527   31.122962
 H   36.269610   43.658927   31.627962
 H   36.097370   42.619927   30.188112
 H   36.506790   41.927727   31.794852
 H   37.700120   42.901527   30.955042
 C   32.705570   35.848667   32.165902
 H   33.776690   35.808837   31.969852
 H   32.567620   36.117877   33.206482
 H   32.250820   36.588907   31.517182
 H   32.269310   34.886797   31.963432
 C   35.704660   44.262827   37.540352
 H   36.186310   45.158027   37.124992
 H   36.339980   43.847727   38.323322
 H   34.732640   44.553827   37.912342
 H   35.559440   43.522927   36.737782
 C   38.703810   39.194587   33.774702
 H   38.084360   39.981727   33.361482
 H   39.455430   38.825527   33.080932
 H   39.182580   39.575157   34.680612
 H   38.045010   38.395627   34.051262
 C   41.277700   33.375507   43.020782
 H   40.349200   32.889477   43.347182
 H   41.262300   34.429647   43.353882
 H   41.300100   33.312667   41.924082
 H   42.170100   32.891467   43.442682
 C   38.810170   42.932427   44.392382
 H   38.059100   42.279427   44.846782
 H   38.517310   43.970727   44.564682
 H   38.823870   42.740227   43.320682
 H   39.758460   42.710327   44.862582
 C   32.346450   42.022527   37.493362
 H   32.604750   41.576927   38.438312
 H   32.095970   43.076627   37.638982
 H   31.522050   41.490427   37.037392
 H   33.252860   41.965727   36.924902
 C   34.654490   41.287027   43.244682
 H   34.784790   42.278927   42.849182
 H   34.761020   40.571927   42.456682
 H   35.427720   41.085627   43.993182
 H   33.647280   41.180327   43.630782
 C   43.581400   42.743227   38.373202
 H   43.954200   43.395327   37.582782
 H   44.138600   42.872527   39.302262
 H   43.728100   41.717827   38.068272
 H   42.523500   42.935327   38.516152
 C   31.389340   35.238157   36.616782
 H   30.474397   34.697537   36.802492
 H   31.272800   35.868457   35.722282
 H   31.606810   35.898717   37.451442
 H   32.220330   34.548387   36.457192
 C   39.762680   31.477227   38.929232
 H   39.286050   31.567157   39.879882
 H   39.893100   32.473477   38.492062
 H   39.154740   30.884947   38.255032
 H   40.719200   30.968227   39.101682
 C   41.707900   37.060977   31.440522
 H   41.383000   37.958357   30.906762
 H   40.842100   36.427047   31.640952
 H   42.414500   36.514747   30.818052
 H   42.199600   37.355367   32.368912
 C   37.418390   44.499227   41.118982
 H   37.404570   45.184127   40.262282
 H   37.854060   43.558327   40.763982
 H   36.420560   44.363627   41.561282
 H   38.044990   44.918527   41.896082
 C   35.676000   30.896077   39.581322
 H   36.295520   31.321107   38.803662
 H   34.750330   30.548777   39.108742
 H   36.186640   30.030217   40.018982
 H   35.475680   31.645477   40.339582
 C   37.628840   31.267867   43.081882
 H   37.110120   32.091937   43.602282
 H   38.464760   30.893417   43.688382
 H   36.952680   30.430469   42.932182
 H   37.990370   31.587017   42.110282
 C   41.819300   39.505997   39.842082
 H   42.275400   38.664437   40.373182
 H   41.651600   40.284427   40.577682
 H   40.863100   39.227497   39.397032
 H   42.523300   39.853587   39.077032
 C   37.910910   33.708887   36.533822
 H   38.418290   33.496707   35.600702
 H   38.568310   34.279397   37.157252
 H   37.601620   32.786397   37.040522
 H   37.022600   34.318437   36.348912
 C   43.611100   40.076427   32.812742
 H   43.707900   41.152027   32.932072
 H   44.424100   39.578837   33.323702
 H   42.692100   39.771657   33.332292
 H   43.584400   39.823967   31.743132
 C   42.062100   38.931137   36.327362
 H   41.259400   39.476337   36.845472
 H   41.651600   38.361517   35.468312
 H   42.811100   39.618597   35.937152
 H   42.531500   38.229497   37.008932
 C   35.534850   40.823027   39.441052
 H   35.440430   41.035727   38.373902
 H   34.570070   40.740627   39.884182
 H   36.072100   39.877427   39.573722
 H   36.081210   41.635127   39.907582
 C   34.881550   35.046357   38.698702
 H   35.616750   35.726217   38.288362
 H   33.970300   35.123157   38.093462
 H   35.218100   34.016777   38.760572
 H   34.668420   35.388877   39.708582
 C   41.544700   40.362827   43.970182
 H   41.777600   39.610107   43.200082
 H   41.385700   41.336727   43.556782
 H   42.353800   40.390527   44.713882
 H   40.622100   40.085527   44.516882
 C   45.965000   40.337427   40.049882
 H   44.910500   40.331027   40.287082
 H   46.541300   40.719027   40.896382
 H   46.118700   41.004627   39.210072
 H   46.329700   39.336477   39.816082
 C   39.795270   37.057557   42.172182
 H   38.715150   37.257797   42.226682
 H   39.932800   36.056157   41.795182
 H   40.240500   37.756517   41.461082
 H   40.268200   37.160927   43.158382
 C   45.890200   39.747647   36.241742
 H   45.445700   39.571747   37.212682
 H   46.977100   39.675677   36.242212
 H   45.567900   40.716727   35.869172
 H   45.525800   38.957667   35.560562
 C   43.762100   32.999137   39.547222
 H   44.505100   33.247577   38.775042
 H   43.600500   33.913687   40.108382
 H   44.129700   32.216827   40.211582
 H   42.837700   32.708977   39.087352
 C   40.915900   35.564057   38.828612
 H   41.129000   36.523327   39.325462
 H   39.885400   35.575367   38.499832
 H   41.595100   35.429717   37.997062
 H   41.075600   34.739957   39.540212
 C   35.387050   36.401927   34.915082
 H   35.135920   37.182707   34.182442
 H   34.493500   36.042547   35.396002
 H   35.872400   35.569767   34.395022
 H   36.121700   36.767567   35.614182
 C   43.357400   36.691467   42.339282
 H   43.961000   35.817347   42.580682
 H   43.968800   37.418727   41.837682
 H   42.528300   36.394377   41.675882
 H   42.970600   37.145307   43.251982
 C   39.932700   35.993447   34.994242
 H   40.360100   36.182407   35.994802
 H   40.171800   34.999737   34.664372
 H   38.850850   36.056627   35.105302
 H   40.319700   36.736727   34.302542
 C   34.418090   33.790507   42.915282
 H   35.100990   34.453577   43.438282
 H   34.432510   32.763207   43.289682
 H   33.416030   34.198667   43.015482
 H   34.615730   33.801927   41.829382
 C   33.252740   37.851467   44.231482
 H   34.290240   37.615747   43.995082
 H   32.952520   37.425147   45.197882
 H   33.156120   38.937517   44.277682
 H   32.661050   37.443367   43.396982
 C   34.478010   32.262597   35.416072
 H   34.206630   32.119567   36.462082
 H   35.421930   32.844577   35.282912
 H   33.660550   32.835957   34.928622
 H   34.593160   31.272477   34.973672
 C   37.873050   36.523977   31.483792
 H   36.837100   36.359597   31.148112
 H   37.934490   36.187317   32.526732
 H   38.567850   35.953997   30.842272
 H   38.106400   37.589687   31.442012
 C   39.818030   32.937557   31.993022
 H   39.293250   33.897037   31.991762
 H   39.240520   32.199837   31.429592
 H   40.807000   33.062257   31.549212
 H   39.901000   32.595017   33.026032
 C   37.758500   34.254767   40.664482
 H   36.960650   34.289477   41.410682
 H   38.694150   33.915007   41.141482
 H   37.463750   33.556557   39.901182
 H   37.866160   35.251507   40.223782
 C   33.465550   43.297627   33.673652
 H   34.120720   43.752827   34.438952
 H   32.893700   42.481927   34.138932
 H   34.091040   42.858627   32.906972
 H   32.802450   44.044827   33.235292
 C   32.048510   39.056467   34.584322
 H   33.062050   38.646837   34.721382
 H   31.991640   40.054827   35.072462
 H   31.855650   39.182277   33.542742
 H   31.318280   38.378727   35.008092
 C   32.162480   32.207437   39.253002
 H   31.180450   32.235937   39.730582
 H   32.453050   33.189207   38.921932
 H   32.089050   31.522617   38.403412
 H   32.924240   31.845947   39.945482
 C   41.804700   32.886087   36.248282
 H   42.661700   33.424477   36.668402
 H   40.902300   33.397437   36.586012
 H   41.836000   32.868897   35.159392
 H   41.778200   31.847777   36.573082
 C   38.983200   41.458627   37.852642
 H   38.476580   40.594427   38.276172
 H   38.339300   42.347827   37.924832
 H   39.932200   41.619527   38.386032
 H   39.213230   41.236627   36.804462
 C   37.988910   39.765267   29.378968
 H   37.657060   40.771427   29.074506
 H   38.772900   39.469557   28.675872
 H   38.413880   39.802797   30.380291
 H   37.168970   39.046627   29.303597
 C   29.596431   38.682277   37.702182
 H   29.091523   39.128757   36.819682
 H   30.681308   38.748257   37.572902
 H   29.313604   37.637837   37.779392
 H   29.306890   39.184607   38.630502
 C   40.027800   45.332327   37.676112
 H   39.321550   45.478027   36.876102
 H   40.008700   44.308327   38.008712
 H   41.025400   45.601027   37.340932
 H   39.749660   45.978827   38.512742
 C   34.954360   39.270297   31.859042
 H   34.399120   39.800077   32.640552
 H   36.017370   39.288957   32.043672
 H   34.743810   39.751717   30.909862
 H   34.580860   38.255907   31.792142
 C   45.255600   36.423807   38.537412
 H   45.428200   36.257287   39.583602
 H   44.799400   35.538297   38.114722
 H   44.563800   37.242797   38.423692
 H   46.195700   36.644537   38.032982
 C   43.874900   36.004267   34.792152
 H   44.492100   35.274137   35.327302
 H   44.070600   35.926857   33.714552
 H   42.814800   35.778147   34.942432
 H   44.066100   37.016737   35.157372
 C   31.237420   35.886077   40.708682
 H   30.654815   35.793177   41.635882
 H   30.519332   35.945057   39.898282
 H   31.899400   35.022267   40.574682
 H   31.834800   36.779917   40.711582
