#total energy=-3.91663264 eV

CRYSTAL
PRIMVEC
        75.9000000            0.00000000           0.00000000
        0.00000000            75.9000000           0.00000000
        0.00000000            0.00000000           75.9000000
PRIMCOORD
320 1
 C   42.087137   37.140130   41.331617
 H   41.335537   37.878730   41.036217
 H   42.255737   36.487680   40.505617
 H   41.737437   36.542910   42.168817
 H   42.987437   37.655060   41.630817
 C   34.292787   32.766330   42.265617
 H   34.745697   31.882740   42.687417
 H   33.964557   32.513920   41.254217
 H   35.037067   33.569130   42.236117
 H   33.459307   33.070890   42.924817
 C   36.292447   39.652040   31.695847
 H   36.609787   38.916330   30.948927
 H   37.096867   40.361940   31.850537
 H   35.394077   40.173740   31.355247
 H   36.082427   39.098940   32.593267
 C   36.969457   43.584540   40.903317
 H   36.235777   42.809140   40.780017
 H   37.394837   43.855440   39.915917
 H   36.507387   44.460040   41.355417
 H   37.748167   43.209240   41.552617
 C   33.736237   45.699140   39.607217
 H   32.673267   45.591840   39.353717
 H   34.185567   44.725640   39.745517
 H   34.281297   46.176240   38.786417
 H   33.831277   46.288040   40.508017
 C   38.548597   47.228840   40.747517
 H   38.919237   46.568640   41.543517
 H   38.114317   48.136240   41.178517
 H   39.412937   47.513740   40.101817
 H   37.838727   46.715540   40.128617
 C   44.732637   31.272040   40.400517
 H   43.765437   31.585560   39.964317
 H   44.959437   31.855420   41.277117
 H   44.731937   30.213320   40.644017
 H   45.500637   31.411490   39.650617
 C   37.652807   33.809380   36.378777
 H   38.307367   33.295970   35.665747
 H   36.749257   34.175540   35.932887
 H   38.167367   34.652220   36.799557
 H   37.426597   33.108840   37.185887
 C   36.154037   44.148340   36.954797
 H   35.137977   44.115440   36.614007
 H   36.371997   45.112440   37.442967
 H   36.283227   43.375340   37.704167
 H   36.870637   44.027340   36.127957
 C   29.692596   42.226240   39.132217
 H   30.417017   42.714040   39.780817
 H   29.072153   41.590840   39.722817
 H   29.082284   42.955640   38.610417
 H   30.252977   41.616140   38.409217
 C   36.984767   45.657540   33.374217
 H   37.994087   45.503840   32.988767
 H   36.448157   46.376040   32.779367
 H   36.472257   44.715240   33.357897
 H   37.014307   45.993740   34.404457
 C   42.267237   33.506280   42.318517
 H   42.734537   34.090210   41.514017
 H   43.044837   33.205850   43.028717
 H   41.757637   32.635660   41.884417
 H   41.499037   34.110290   42.795117
 C   39.475637   33.508110   32.674547
 H   40.276837   33.384920   33.389727
 H   39.822337   33.088540   31.729797
 H   39.247037   34.555320   32.556047
 H   38.550117   33.013290   33.002297
 C   34.045607   36.225030   43.270717
 H   35.090707   36.462490   43.114517
 H   33.493317   37.132850   43.408617
 H   33.956757   35.559160   44.124717
 H   33.671327   35.690670   42.380417
 C   35.980177   34.428220   39.444917
 H   36.479377   33.480220   39.705017
 H   36.766067   35.120000   39.108017
 H   35.274587   34.269460   38.625117
 H   35.485317   34.851250   40.323417
 C   36.196057   40.353040   42.699917
 H   36.842497   39.838940   41.985917
 H   36.318987   39.918840   43.688017
 H   36.422077   41.413140   42.754817
 H   35.171127   40.149740   42.394317
 C   43.112037   32.084240   36.075927
 H   44.122537   32.378810   35.786437
 H   43.082637   30.987800   36.202787
 H   42.442237   32.342190   35.256377
 H   42.790837   32.577720   36.993667
 C   39.882637   44.157540   37.920477
 H   38.980937   43.634840   37.655197
 H   40.327437   43.836740   38.847217
 H   40.614837   43.966840   37.107597
 H   39.670137   45.189240   37.963287
 C   31.523077   39.400440   41.467617
 H   31.477857   38.349890   41.248417
 H   32.535487   39.812140   41.221717
 H   30.757767   39.853140   40.847017
 H   31.260577   39.584740   42.500817
 C   41.156037   43.887240   41.942717
 H   41.153337   42.805240   42.057517
 H   40.204237   44.223140   41.519517
 H   41.286037   44.329540   42.945017
 H   41.977537   44.177240   41.310217
 C   44.170637   38.543360   34.741967
 H   44.739037   38.340620   35.631937
 H   44.372637   39.604240   34.489187
 H   43.124137   38.420740   34.949997
 H   44.511837   37.869690   33.966517
 C   45.958237   35.133030   35.744367
 H   44.976437   35.337380   35.322947
 H   46.064137   35.626420   36.727147
 H   46.739037   35.520320   35.084467
 H   46.078337   34.050300   35.843267
 C   36.330757   33.287360   45.759917
 H   37.211637   33.026760   45.169717
 H   36.296317   34.375540   45.918717
 H   36.361537   32.793710   46.718417
 H   35.444097   33.044980   45.184317
 C   43.574337   38.589440   38.237597
 H   43.767937   37.627040   37.777737
 H   42.537937   38.636120   38.575717
 H   44.198137   38.713340   39.114917
 H   43.738837   39.415140   37.526697
 C   37.659927   30.156080   39.377717
 H   38.418887   29.772451   40.070117
 H   38.057157   31.045260   38.875517
 H   36.784507   30.429440   39.965517
 H   37.369637   29.434095   38.629617
 C   43.994537   34.450650   38.879617
 H   44.761637   33.699020   38.697117
 H   43.022737   33.988590   39.039617
 H   44.280837   35.051410   39.730417
 H   43.948637   35.131670   38.034727
 C   33.775897   31.510500   38.041727
 H   33.136767   32.400890   38.054597
 H   33.267857   30.584070   38.326517
 H   34.607137   31.666160   38.692817
 H   34.131037   31.371980   37.028317
 C   35.044377   37.133170   36.265547
 H   35.460067   38.129420   36.478537
 H   35.081127   36.945200   35.188497
 H   35.579907   36.357390   36.824447
 H   34.006157   37.136960   36.590277
 C   33.529227   41.503140   38.359277
 H   33.529337   40.628140   37.708437
 H   33.528227   42.413040   37.745347
 H   34.473447   41.460140   38.922117
 H   32.695477   41.469340   39.057217
 C   30.936547   41.484040   35.195547
 H   31.030387   40.549840   34.636357
 H   31.734437   41.495640   35.930907
 H   30.998897   42.309740   34.470397
 H   29.988967   41.459040   35.705567
 C   40.253737   40.008340   43.945417
 H   40.526737   41.036540   44.132917
 H   39.245137   39.956540   43.539017
 H   41.009737   39.599940   43.243317
 H   40.341937   39.471840   44.902917
 C   34.783957   41.805040   34.326757
 H   34.373507   40.838440   34.608767
 H   35.297837   42.264640   35.169357
 H   34.046547   42.492940   33.940657
 H   35.515777   41.621140   33.554487
 C   32.047097   44.652740   36.087197
 H   31.842137   44.067840   36.991147
 H   32.318407   45.691140   36.349067
 H   31.150227   44.669440   35.438387
 H   32.869327   44.224440   35.495847
 C   37.515447   37.505280   45.385917
 H   37.961067   37.307870   46.358517
 H   36.505247   37.053900   45.280217
 H   37.470307   38.575250   45.228617
 H   38.168217   37.094300   44.633617
 C   33.395017   42.606140   42.322817
 H   34.355487   43.020140   42.613817
 H   32.674077   43.411840   42.150417
 H   33.517247   42.052440   41.385617
 H   33.069697   41.885140   43.089317
 C   32.391227   43.146840   31.509537
 H   33.400847   42.790740   31.191707
 H   31.790177   42.347640   31.916727
 H   32.521227   43.896040   32.274667
 H   31.896737   43.627740   30.667767
 C   41.456537   29.719486   43.048517
 H   42.276937   30.060170   42.386617
 H   41.879937   29.058457   43.789317
 H   40.972637   30.524250   43.591317
 H   40.711737   29.227713   42.415617
 C   39.478737   30.417490   35.174857
 H   40.191937   29.652737   35.521387
 H   39.245137   30.245230   34.117567
 H   39.957237   31.388160   35.262487
 H   38.557677   30.410110   35.758137
 C   38.346637   36.278450   41.853317
 H   39.324437   36.550020   42.252517
 H   38.358087   35.704190   40.935617
 H   37.790487   37.209600   41.686217
 H   37.795197   35.711360   42.622217
 C   39.502637   37.299880   38.453217
 H   40.243237   36.702000   38.949917
 H   38.669937   37.482930   39.117117
 H   39.912137   38.251590   38.129387
 H   39.101537   36.740270   37.584817
 C   32.412667   35.042440   39.373017
 H   32.838837   34.992320   38.367567
 H   32.494517   36.084160   39.757917
 H   32.922687   34.363850   40.060717
 H   31.370257   34.736020   39.293117
 C   38.905237   36.726460   30.475287
 H   38.958037   37.406990   29.628067
 H   38.634017   37.264930   31.367867
 H   39.897637   36.227690   30.645687
 H   38.129687   35.952030   30.294257
 C   38.375677   32.195220   42.426217
 H   39.236737   31.639670   42.024317
 H   37.693287   31.512020   42.928617
 H   38.721387   32.934400   43.157317
 H   37.846687   32.712510   41.648417
 C   35.057687   38.148660   39.930617
 H   34.517847   38.091130   40.882217
 H   35.123827   37.161130   39.460917
 H   34.547597   38.822750   39.239717
 H   36.069487   38.554140   40.090617
 C   42.652437   35.976890   31.776007
 H   41.988437   35.139020   31.982367
 H   42.408437   36.372800   30.805437
 H   42.490737   36.734560   32.562317
 H   43.669337   35.664360   31.747167
 C   41.036737   40.686940   36.195897
 H   40.734737   41.647740   35.801547
 H   42.111637   40.632940   36.129667
 H   40.758437   40.601140   37.223647
 H   40.668237   39.825740   35.625627
 C   43.458237   42.734740   38.554917
 H   43.257837   43.570740   39.245717
 H   44.106837   43.103140   37.760567
 H   43.971437   41.916040   39.092717
 H   42.547237   42.354840   38.133697
 C   41.265337   30.027240   38.672117
 H   41.302837   30.013070   39.764817
 H   40.238237   29.986030   38.299137
 H   41.664437   30.954200   38.268537
 H   41.798137   29.140042   38.291717
 C   38.848337   42.536640   34.001017
 H   39.641937   42.463740   33.271357
 H   38.598497   41.567740   34.465957
 H   37.945727   42.880640   33.482357
 H   39.095037   43.244940   34.789717
 C   41.458337   35.771130   35.596087
 H   42.364237   35.336310   35.106217
 H   41.461337   36.838380   35.352037
 H   40.588037   35.247600   35.206877
 H   41.464437   35.635700   36.685697
 C   32.706557   34.549720   35.249037
 H   32.406057   34.015540   34.365797
 H   32.243517   35.520390   35.247267
 H   32.408697   34.026200   36.159137
 H   33.770777   34.681610   35.271237
 C   40.035937   33.550260   39.333617
 H   40.046937   32.542220   39.674017
 H   39.004737   33.766410   39.113717
 H   40.405237   34.185780   40.135617
 H   40.559137   33.677910   38.394717
 C   31.230587   38.376910   37.248427
 H   30.798157   37.373550   37.088187
 H   31.694977   38.305180   38.211567
 H   30.478297   39.180640   37.242227
 H   31.940307   38.612550   36.459337
 C   38.065247   42.903840   30.225767
 H   37.913407   43.179340   29.202388
 H   37.227757   42.331040   30.590427
 H   38.929637   42.244040   30.267907
 H   38.323307   43.797140   30.799777
 C   36.925787   40.360940   37.614747
 H   35.975017   40.473840   37.120607
 H   37.147817   39.300440   37.711817
 H   36.787647   40.799940   38.596717
 H   37.677187   40.856240   37.012727
 C   41.540637   35.890570   45.314117
 H   41.818737   34.855490   45.321617
 H   41.478737   36.220190   46.354117
 H   42.314837   36.455690   44.795517
 H   40.583137   36.067260   44.827717
 C   42.731637   43.607240   34.546597
 H   42.273937   43.106840   33.706947
 H   42.610837   43.006540   35.447457
 H   43.778737   43.840640   34.335927
 H   42.155737   44.526440   34.677277
 C   35.462577   31.518550   34.033147
 H   35.564847   31.937660   35.029137
 H   35.977597   30.530870   33.954817
 H   34.403837   31.402610   33.798527
 H   35.894437   32.247510   33.340637
 C   32.950277   37.978820   33.386727
 H   33.038967   37.021090   32.883297
 H   33.910627   38.297510   33.744217
 H   32.251827   37.929890   34.218217
 H   32.630957   38.685040   32.646707
 C   43.702037   40.808540   41.617017
 H   44.541737   40.269440   41.190017
 H   42.823337   40.607140   40.976717
 H   43.480137   40.447540   42.609317
 H   43.870737   41.884440   41.675617
 C   36.269627   35.346410   32.714437
 H   36.472107   34.920940   31.752177
 H   35.282087   35.035900   33.073107
 H   36.277907   36.425310   32.623867
 H   37.017557   34.981740   33.416497
 C   40.879237   39.562240   32.424727
 H   41.459937   40.162140   33.153757
 H   40.779337   38.577190   32.848607
 H   39.885537   40.006640   32.321437
 H   41.361937   39.500540   31.463907
 C   38.353747   37.840590   34.601937
 H   38.498357   38.036520   35.653557
 H   37.328307   37.521800   34.438067
 H   38.569797   38.731620   34.059387
 H   39.045937   37.056050   34.259487
 C   39.466937   40.702540   40.260717
 H   39.160537   41.043840   39.280617
 H   39.382137   39.617840   40.334617
 H   38.843937   41.177940   41.023617
 H   40.520437   40.993840   40.403117
