#total energy=-4.6396828 eV

CRYSTAL
PRIMVEC
        75.9000000            0.00000000           0.00000000
        0.00000000            75.9000000           0.00000000
        0.00000000            0.00000000           75.9000000
PRIMCOORD
320 1
 C   34.351577   39.933982   37.850397
 H   33.465267   39.360652   37.635107
 H   34.034927   40.916622   38.231167
 H   34.922657   40.060222   36.938187
 H   34.943187   39.426292   38.607667
 C   35.171377   30.271557   37.774457
 H   36.012757   30.926631   38.000617
 H   34.351787   30.493212   38.444407
 H   35.495627   29.239511   37.906297
 H   34.828017   30.426155   36.741207
 C   42.936327   43.499122   34.729647
 H   43.003727   44.580522   34.918087
 H   43.889327   43.114622   34.359607
 H   42.731027   43.027922   35.681457
 H   42.148427   43.278222   33.993107
 C   40.671827   33.655242   40.661767
 H   39.956887   33.200302   39.971327
 H   41.059727   34.579242   40.232667
 H   40.195427   33.917702   41.607067
 H   41.491427   32.972482   40.846567
 C   30.720100   37.484862   37.381207
 H   31.233997   37.560122   36.435547
 H   30.884151   36.490162   37.789837
 H   31.078819   38.247322   38.068487
 H   29.648348   37.579182   37.214897
 C   36.840707   33.954032   37.873857
 H   37.301217   33.714742   36.904947
 H   36.905297   35.030192   38.055917
 H   35.797947   33.632892   37.873527
 H   37.344877   33.445412   38.679717
 C   38.106257   31.516962   42.396567
 H   38.344287   31.560862   43.462967
 H   37.720777   32.483172   42.087867
 H   39.036697   31.296612   41.866667
 H   37.352787   30.759676   42.214667
 C   44.723527   37.715172   40.686967
 H   43.716327   37.400652   40.413567
 H   44.778027   37.947642   41.755367
 H   44.982327   38.595512   40.113067
 H   45.431727   36.902302   40.482767
 C   39.773777   40.708322   32.007807
 H   40.516127   40.155862   31.441477
 H   40.216927   41.626022   32.387497
 H   38.926427   40.921622   31.354267
 H   39.445417   40.103672   32.836537
 C   35.930947   40.460622   44.616967
 H   35.842707   41.495022   44.277967
 H   36.335867   40.456922   45.636967
 H   34.928997   39.991402   44.634367
 H   36.603637   39.910892   43.954667
 C   34.168317   37.121882   43.365867
 H   33.948387   37.149102   44.428967
 H   33.224607   37.244282   42.849067
 H   34.882297   37.898002   43.107567
 H   34.591377   36.143532   43.086367
 C   44.264527   41.260822   37.920947
 H   43.214027   41.020922   37.726987
 H   44.614327   42.084922   37.304617
 H   44.829327   40.366322   37.685267
 H   44.409727   41.475022   38.983647
 C   39.385967   44.922922   35.618747
 H   40.066417   45.601722   36.167817
 H   38.549757   44.695422   36.269227
 H   39.917287   44.016222   35.337467
 H   39.042747   45.429122   34.693227
 C   35.571757   45.868322   35.968807
 H   35.720277   44.818522   36.218057
 H   34.509987   46.116022   36.080327
 H   35.869557   46.015722   34.933277
 H   36.156457   46.508722   36.612997
 C   45.777627   37.469092   36.862087
 H   44.899327   37.608632   37.495997
 H   46.004327   36.408442   36.768637
 H   45.581427   37.869252   35.868417
 H   46.608527   37.959482   37.371787
 C   37.967967   37.941432   37.725867
 H   38.534847   37.541772   36.916077
 H   37.857657   39.005012   37.584427
 H   36.986527   37.486972   37.711547
 H   38.512407   37.712432   38.631757
 C   30.905035   41.436722   38.456587
 H   31.671107   40.912422   39.029657
 H   30.342501   42.059322   39.135377
 H   30.192726   40.754222   37.976817
 H   31.351017   42.085922   37.705447
 C   34.627057   40.899622   31.210627
 H   33.864407   41.627622   31.429957
 H   35.032357   40.496722   32.139747
 H   34.186817   40.083522   30.635933
 H   35.433717   41.357822   30.640841
 C   38.326037   31.953142   34.706307
 H   39.052157   32.625492   35.184287
 H   37.416567   31.860762   35.305667
 H   38.082127   32.272542   33.692107
 H   38.800187   30.973742   34.602337
 C   40.571027   37.540602   41.047867
 H   40.760027   36.831022   41.849867
 H   41.280027   38.374382   41.098167
 H   40.702527   37.004802   40.088647
 H   39.541027   37.923342   41.109767
 C   36.502937   33.612392   31.142417
 H   37.231287   34.403992   31.411267
 H   37.004647   32.663242   30.923759
 H   35.878347   33.944452   30.316938
 H   35.888837   33.455492   32.037367
 C   40.873427   44.414622   42.245667
 H   41.759127   44.747422   41.714767
 H   40.160927   45.231522   42.267067
 H   41.130327   44.176122   43.273567
 H   40.446827   43.541522   41.725867
 C   43.826627   34.369492   38.695097
 H   44.000627   34.899582   37.751077
 H   43.359527   35.048222   39.421167
 H   44.781827   34.011482   39.084547
 H   43.161827   33.522402   38.518167
 C   37.400497   42.982622   41.840567
 H   37.882527   43.753422   42.415067
 H   37.621657   42.014522   42.288967
 H   36.332647   43.164222   41.862267
 H   37.745997   43.022722   40.806067
 C   36.116837   33.989522   44.747967
 H   35.121767   34.428632   44.856067
 H   36.690857   34.542812   43.992767
 H   36.034857   32.969452   44.414667
 H   36.632127   34.041212   45.712967
 C   34.148587   36.439742   36.022037
 H   34.417517   36.490892   34.947737
 H   34.066757   37.450242   36.427997
 H   33.183267   35.932932   36.130407
 H   34.931447   35.895832   36.541577
 C   43.572827   34.585572   42.600567
 H   43.730127   33.848312   41.816767
 H   44.517727   35.077732   42.833867
 H   43.227827   34.092942   43.507567
 H   42.862627   35.335052   42.266067
 C   43.886227   39.582172   33.968757
 H   43.648327   38.537742   34.184707
 H   44.206227   40.055472   34.904197
 H   44.697127   39.642102   33.253977
 H   43.014727   40.103102   33.551237
 C   42.333227   37.476742   44.538967
 H   42.745727   38.257002   45.165367
 H   42.502127   37.734982   43.486167
 H   41.259127   37.386682   44.676667
 H   42.800027   36.505312   44.774167
 C   36.903467   43.095722   33.356857
 H   37.356437   43.788622   32.642407
 H   37.433457   42.152322   33.287217
 H   36.960057   43.476722   34.373847
 H   35.863077   42.924222   33.104757
 C   40.600327   34.017992   32.184027
 H   41.456627   33.829842   31.520007
 H   40.940227   34.328832   33.170937
 H   40.013487   34.814922   31.742697
 H   39.969967   33.129012   32.251737
 C   40.150087   34.000932   44.588667
 H   40.749727   33.142412   44.252167
 H   40.335227   34.193652   45.656467
 H   39.096887   33.800552   44.419267
 H   40.427727   34.887842   43.986067
 C   34.102567   36.556542   31.961477
 H   33.103467   36.894272   32.221567
 H   34.835517   37.317272   32.299157
 H   34.199967   36.411092   30.888528
 H   34.326317   35.625152   32.476357
 C   38.082147   37.364462   44.661967
 H   38.239117   38.139082   45.428267
 H   37.107007   37.495662   44.183567
 H   38.876897   37.464372   43.911267
 H   38.157387   36.387352   45.155667
 C   40.407327   40.986422   35.816527
 H   39.594367   41.480022   35.271347
 H   40.782527   41.665022   36.592657
 H   40.009967   40.094582   36.282707
 H   41.215127   40.685322   35.149677
 C   30.831592   34.947212   34.379507
 H   31.041623   33.940962   34.039047
 H   29.865701   35.257122   33.997497
 H   30.782953   34.917662   35.467077
 H   31.624527   35.618672   34.044527
 C   40.453827   37.546902   34.346777
 H   40.963827   37.219252   35.244207
 H   39.470617   37.957312   34.580997
 H   41.058827   38.314602   33.853387
 H   40.339727   36.683492   33.713587
 C   42.195227   37.246762   30.832953
 H   42.881027   37.767792   31.510947
 H   42.500827   36.215502   30.688821
 H   42.152927   37.758012   29.873365
 H   41.207227   37.236212   31.291257
 C   38.106967   45.701322   39.175707
 H   38.013027   45.832222   40.249567
 H   38.561137   46.597722   38.726887
 H   37.104447   45.538722   38.767117
 H   38.731117   44.821522   38.981157
 C   42.082127   38.248602   37.692107
 H   41.002027   38.407312   37.636247
 H   42.520327   38.632922   36.777347
 H   42.511727   38.809232   38.524007
 H   42.300727   37.188002   37.786307
 C   33.391807   41.113522   41.744867
 H   34.310827   41.576522   42.123067
 H   32.772537   41.857122   41.266867
 H   32.839867   40.636022   42.557767
 H   33.645887   40.358522   41.014267
 C   34.175357   43.869322   39.452987
 H   34.663017   44.502522   38.726197
 H   33.234747   43.528122   39.022777
 H   33.959957   44.430322   40.357667
 H   34.801657   43.019022   39.691217
 C   37.420677   35.432672   34.348677
 H   36.990697   36.106542   33.603217
 H   38.352507   35.000642   33.977797
 H   37.553107   35.975422   35.271197
 H   36.710447   34.639542   34.520497
 C   37.067617   42.268822   37.537507
 H   36.530217   42.134722   36.620867
 H   36.795657   41.492122   38.245027
 H   38.147487   42.255622   37.330767
 H   36.832947   43.230622   37.998367
 C   41.993727   31.846302   35.383677
 H   41.660027   32.886412   35.283217
 H   41.787927   31.270822   34.469647
 H   43.056427   31.883112   35.611547
 H   41.471427   31.379192   36.227637
 C   40.126447   41.286622   39.593897
 H   40.194927   41.011022   40.638467
 H   41.084027   41.146322   39.119847
 H   39.380137   40.661122   39.100137
 H   39.824997   42.338822   39.510677
 C   40.210227   40.578222   43.800167
 H   40.420027   39.721802   43.150667
 H   40.384727   41.497122   43.243467
 H   39.177027   40.533822   44.149067
 H   40.880727   40.531322   44.658667
 C   38.061557   37.313132   30.778045
 H   38.400477   36.367872   30.366716
 H   38.426147   37.439102   31.784517
 H   38.438497   38.144002   30.171727
 H   36.961737   37.326692   30.785319
 C   42.078227   44.320922   38.469747
 H   42.330827   43.577722   39.241447
 H   41.765627   45.250922   38.943987
 H   41.259827   43.989722   37.849957
 H   42.973727   44.518122   37.843677
 C   30.619221   38.691652   41.260667
 H   31.619047   38.459742   40.905867
 H   30.516770   39.747412   41.453867
 H   29.892990   38.407632   40.497467
 H   30.391171   38.122402   42.157267
 C   39.032137   30.656940   38.469887
 H   39.064807   31.404052   37.668267
 H   40.032807   30.401318   38.802997
 H   38.481317   31.050258   39.312807
 H   38.548727   29.751133   38.113707
 C   36.729227   39.284472   34.491597
 H   37.046297   38.983142   33.505167
 H   36.548037   38.423292   35.135217
 H   37.504437   39.889542   34.963207
 H   35.801057   39.863402   34.417797
 C   34.777197   32.680012   40.943667
 H   35.272577   33.044682   41.835367
 H   33.833177   32.193342   41.209867
 H   35.407917   31.907922   40.491667
 H   34.585057   33.497932   40.228167
 C   33.966607   36.864522   39.796587
 H   33.061497   36.986882   39.229777
 H   34.142267   37.768382   40.407567
 H   33.864367   35.982552   40.455367
 H   34.819247   36.707302   39.132027
 C   32.517117   33.588882   38.008207
 H   33.189907   32.782672   38.258367
 H   32.430567   33.647032   36.921637
 H   32.923457   34.527212   38.414277
 H   31.525627   33.418922   38.437407
 C   32.444347   39.255892   34.147847
 H   32.101937   39.750942   33.238667
 H   31.909167   38.324392   34.269227
 H   33.515757   39.078102   34.079227
 H   32.192537   39.872382   35.027107
 C   40.351727   34.931842   37.053247
 H   39.844277   34.918682   36.087697
 H   39.933497   35.662992   37.727037
 H   40.241927   33.942782   37.479167
 H   41.414627   35.127852   36.902997
 C   36.822087   39.434672   40.910967
 H   35.920587   39.827962   41.359267
 H   36.553467   38.624912   40.268867
 H   37.297227   40.216622   40.312467
 H   37.493947   39.101992   41.692967
 C   43.266227   41.151022   41.725167
 H   43.396927   40.534922   42.622467
 H   44.146127   41.793422   41.674567
 H   42.389527   41.770722   41.835167
 H   43.203027   40.534922   40.823767
 C   43.791427   35.589102   34.402697
 H   43.718927   34.529332   34.657567
 H   44.813527   35.831022   34.112297
 H   43.128727   35.780722   33.541097
 H   43.469727   36.200442   35.241037
 C   37.183847   35.733242   41.168767
 H   37.792017   35.081422   41.797667
 H   37.788797   35.957292   40.272867
 H   36.992267   36.622652   41.744767
 H   36.251577   35.240572   40.897367
 C   31.298317   34.745562   41.628367
 H   31.711067   33.895872   41.092867
 H   31.865877   34.886082   42.551867
 H   31.348437   35.659182   41.031867
 H   30.266113   34.540872   41.897167
 C   33.657877   42.701322   35.179317
 H   32.563107   42.571922   35.295777
 H   33.897937   43.600522   34.610497
 H   34.075137   42.763522   36.192957
 H   34.084937   41.827222   34.675827
 C   34.460187   32.715442   34.750487
 H   34.344987   33.650932   34.212027
 H   33.472777   32.283552   34.918627
 H   34.949247   32.925332   35.719517
 H   35.067437   32.028392   34.192707
