#total energy=-4.09166672 eV

CRYSTAL
PRIMVEC
        75.9000000            0.00000000           0.00000000
        0.00000000            75.9000000           0.00000000
        0.00000000            0.00000000           75.9000000
PRIMCOORD
320 1
 C   36.161358   42.204653   34.518423
 H   35.758468   41.220053   34.711083
 H   36.285038   42.427253   33.455793
 H   37.160818   42.228053   34.983003
 H   35.517628   42.957753   34.964793
 C   43.473618   36.151553   32.456543
 H   43.697218   35.630543   31.546203
 H   42.461318   36.525743   32.419933
 H   44.123818   36.998253   32.541993
 H   43.558518   35.499283   33.323973
 C   41.942918   33.061883   31.836233
 H   41.630918   32.027283   32.063563
 H   42.791618   33.097383   31.149653
 H   41.115318   33.602833   31.401953
 H   42.216518   33.543553   32.773113
 C   34.526568   32.350753   43.092033
 H   34.985308   32.460073   42.110033
 H   34.616808   33.282893   43.674433
 H   33.459068   32.161423   42.924833
 H   34.961138   31.526983   43.639233
 C   41.962118   38.004533   40.593133
 H   42.687218   37.918533   39.788133
 H   41.947318   37.069133   41.144233
 H   42.293918   38.828683   41.243033
 H   40.976718   38.253903   40.189833
 C   39.353918   36.706603   30.749903
 H   40.412718   36.665793   30.437793
 H   38.931698   35.700633   30.587463
 H   39.315218   36.952893   31.809283
 H   38.812558   37.457573   30.168923
 C   30.042617   40.547253   37.862393
 H   29.339851   41.310253   37.537503
 H   30.520488   40.823053   38.793333
 H   29.548295   39.584453   38.056433
 H   30.795678   40.381753   37.084813
 C   31.882728   34.820323   42.197533
 H   31.571498   35.310873   41.291033
 H   31.655588   35.466893   43.047633
 H   32.951838   34.640963   42.159633
 H   31.368708   33.859513   42.294533
 C   43.478518   32.772873   36.008883
 H   44.045618   32.105973   35.362743
 H   43.395718   33.780643   35.617433
 H   42.483918   32.363073   36.106243
 H   44.021618   32.810073   36.953893
 C   38.342318   38.108113   38.501683
 H   38.491858   38.899203   39.224733
 H   39.023058   38.193083   37.648633
 H   38.522728   37.152153   39.016033
 H   37.291478   38.133143   38.235143
 C   41.274018   40.505953   37.649033
 H   42.338618   40.383153   37.478403
 H   40.711918   40.092553   36.809663
 H   41.050618   39.950853   38.545623
 H   41.053618   41.561053   37.783813
 C   37.273988   39.154173   45.808733
 H   37.408948   39.920953   46.581233
 H   36.739958   38.304443   46.235133
 H   38.213298   38.846953   45.382433
 H   36.606188   39.533353   45.042333
 C   30.154026   36.842153   38.731623
 H   30.856088   36.102473   38.406733
 H   29.619476   36.460493   39.592233
 H   29.443497   37.023233   37.905973
 H   30.663188   37.746853   39.008833
 C   36.559278   34.526003   37.137993
 H   36.212648   33.723303   37.768723
 H   37.012638   35.288583   37.751773
 H   35.689398   34.938733   36.634803
 H   37.257718   34.130563   36.388273
 C   33.539278   32.966583   39.087033
 H   32.622978   33.514663   39.212633
 H   33.573408   32.199553   39.830333
 H   33.608878   32.535493   38.101093
 H   34.348008   33.651433   39.281333
 C   32.471128   35.543423   35.888913
 H   33.167188   35.330263   35.070823
 H   32.269378   36.613063   35.902973
 H   31.560628   34.984333   35.759213
 H   32.972768   35.266113   36.827613
 C   39.081018   31.347583   41.983133
 H   38.784228   32.190653   41.377733
 H   38.381628   31.214223   42.814833
 H   40.106118   31.523173   42.322333
 H   39.072748   30.429013   41.387133
 C   38.209698   33.540233   44.636633
 H   37.675778   34.140453   45.391433
 H   38.760678   32.692793   45.064433
 H   37.464788   33.159763   43.948133
 H   38.892808   34.192493   44.091133
 C   43.424018   41.875153   40.633133
 H   43.447318   41.633353   41.685933
 H   44.379218   41.561453   40.206633
 H   42.596918   41.343253   40.142933
 H   43.328118   42.977053   40.497133
 C   36.062498   39.054643   41.242133
 H   36.195128   39.359253   40.195233
 H   36.427888   39.790853   41.928833
 H   35.013278   38.834813   41.451133
 H   36.644618   38.158973   41.432433
 C   34.979028   42.693353   41.236933
 H   35.974388   42.406153   41.511933
 H   34.489518   41.883553   40.712533
 H   35.016218   43.543153   40.551433
 H   34.463018   42.998653   42.127033
 C   30.154945   38.372543   34.793163
 H   29.893889   37.443703   35.292453
 H   29.415864   39.114363   35.081863
 H   30.105373   38.242853   33.721463
 H   31.159258   38.698183   35.051793
 C   45.511418   39.408753   38.097423
 H   45.156818   39.497453   37.056083
 H   46.358418   38.702243   38.165463
 H   44.682918   39.071123   38.723703
 H   45.848118   40.372053   38.485803
 C   39.135318   31.448293   36.732593
 H   38.694898   31.870313   37.637793
 H   39.166318   32.215343   35.948013
 H   40.144718   31.101923   36.931333
 H   38.527358   30.626593   36.414063
 C   39.411118   41.238853   41.264033
 H   39.971918   41.826653   40.564333
 H   38.347808   41.375353   41.063233
 H   39.654918   41.588753   42.263433
 H   39.680718   40.199453   41.172833
 C   41.341418   44.706753   39.106533
 H   41.681318   43.691753   38.881433
 H   41.899418   45.124253   39.925533
 H   41.432818   45.298453   38.226213
 H   40.317018   44.714453   39.419133
 C   39.973118   34.254803   38.964833
 H   40.000718   34.086193   37.889443
 H   40.874218   34.775933   39.302733
 H   39.904718   33.310453   39.484633
 H   39.058578   34.823183   39.197033
 C   44.014718   42.860653   36.417003
 H   43.194918   42.207153   36.111333
 H   43.659918   43.888353   36.366863
 H   44.345018   42.645553   37.437023
 H   44.851818   42.755353   35.730723
 C   37.464078   42.614253   44.152333
 H   38.339438   43.136553   43.741233
 H   37.213498   41.802653   43.465433
 H   36.624408   43.330353   44.284533
 H   37.723258   42.178353   45.130733
 C   42.081918   36.774603   36.751823
 H   42.923218   36.717483   37.452063
 H   42.494018   36.611533   35.740773
 H   41.394318   35.991793   36.999713
 H   41.575518   37.753703   36.804683
 C   38.448548   31.730543   32.703053
 H   38.758508   32.413823   31.909063
 H   39.173718   31.702723   33.487073
 H   37.489298   32.062563   33.098293
 H   38.324238   30.719393   32.314313
 C   34.478438   36.894393   43.774233
 H   34.231678   36.662313   42.775733
 H   33.697828   37.505293   44.246233
 H   35.402888   37.473863   43.732533
 H   34.662978   35.978963   44.349233
 C   32.654448   43.762953   36.591683
 H   31.940598   43.054953   36.985063
 H   33.582468   43.623753   37.153423
 H   32.279948   44.776753   36.738033
 H   32.812198   43.537453   35.555863
 C   32.546708   37.102313   32.496213
 H   33.236708   37.462883   33.259693
 H   31.726298   36.532333   32.973363
 H   32.124148   37.971283   32.010613
 H   33.111128   36.477863   31.783273
 C   34.574818   32.021753   34.904463
 H   34.388098   31.062453   35.380243
 H   35.613658   32.306213   35.042323
 H   34.306298   31.944173   33.860273
 H   33.942758   32.786673   35.371223
 C   42.835618   43.734653   32.933913
 H   42.066218   43.748253   33.734843
 H   43.274218   42.734253   32.858533
 H   42.334118   44.047853   32.003233
 H   43.627718   44.419153   33.138303
 C   41.147618   44.409653   43.049433
 H   41.784218   43.705453   42.536933
 H   41.625818   45.383853   43.027933
 H   40.153118   44.428153   42.553933
 H   41.014418   44.120353   44.074833
 C   33.805098   40.778253   44.406033
 H   33.095038   40.035553   44.753633
 H   34.443818   40.361053   43.602933
 H   34.482028   41.063253   45.243133
 H   33.277558   41.624753   43.992633
 C   36.297048   35.335173   33.293163
 H   36.949128   34.928983   32.523623
 H   35.250908   35.163953   33.000583
 H   36.446638   36.414903   33.324533
 H   36.484758   34.845073   34.251383
 C   39.793918   35.023703   34.330943
 H   40.596618   34.462653   34.763773
 H   39.189218   35.418823   35.141363
 H   40.235218   35.893553   33.819323
 H   39.194918   34.430353   33.622663
 C   44.286818   34.660013   39.249733
 H   43.353018   34.189213   38.931033
 H   44.830718   35.069213   38.387203
 H   44.931818   33.902173   39.704033
 H   44.063118   35.449493   39.962033
 C   35.921568   39.083153   31.406223
 H   34.843518   38.988513   31.563363
 H   36.110028   39.725553   30.557773
 H   36.401908   38.105523   31.248603
 H   36.384758   39.523453   32.282703
 C   36.729058   34.941723   41.147533
 H   37.149548   34.108133   40.579233
 H   36.792078   35.862173   40.570933
 H   35.684388   34.735783   41.400433
 H   37.296328   35.052053   42.074633
 C   31.651998   39.194443   41.544133
 H   31.850428   40.068253   42.169733
 H   31.755408   38.300173   42.176633
 H   30.656968   39.225433   41.140933
 H   32.351448   39.172353   40.700433
 C   45.814418   36.882423   35.259373
 H   44.773418   36.902643   35.525003
 H   45.938518   36.261593   34.404693
 H   46.107518   37.897923   34.967673
 H   46.440518   36.511333   36.079983
 C   30.956368   43.048753   40.959333
 H   30.430618   43.382453   40.063733
 H   32.038518   43.144753   40.797833
 H   30.648688   43.673253   41.815533
 H   30.734138   42.011653   41.183733
 C   36.436918   30.491413   39.382133
 H   36.486328   31.558313   39.117233
 H   35.552988   30.020942   38.898333
 H   37.315358   30.026934   38.977033
 H   36.432008   30.396253   40.457433
 C   42.801318   39.658953   34.131313
 H   43.258618   40.029253   33.222733
 H   42.051518   40.367153   34.530773
 H   42.313018   38.706653   33.909033
 H   43.625518   39.552553   34.846803
 C   32.972598   40.631953   33.552883
 H   33.434548   41.599053   33.340343
 H   32.240588   40.685653   34.365463
 H   33.786058   39.934353   33.764433
 H   32.404548   40.292653   32.698513
 C   39.736118   41.189153   32.264463
 H   40.210418   40.231753   32.026243
 H   40.435218   41.817853   32.800703
 H   39.434018   41.726953   31.360443
 H   38.850628   40.978953   32.868773
 C   35.337328   38.237753   35.776833
 H   35.955388   37.474433   36.215253
 H   35.729058   39.210073   36.081853
 H   35.329578   38.160143   34.694533
 H   34.308868   38.163203   36.119563
 C   37.633248   45.773853   41.053533
 H   37.388398   46.364853   41.915433
 H   37.049318   46.058653   40.194533
 H   38.694278   45.878353   40.812233
 H   37.428388   44.749153   41.350733
 C   41.862818   40.516053   44.302033
 H   40.932818   40.015453   44.572033
 H   41.787818   41.523353   44.755733
 H   41.847918   40.631153   43.212833
 H   42.752518   39.966453   44.630733
 C   33.963488   36.997193   39.086033
 H   33.644798   37.141933   40.129533
 H   34.282988   35.985243   39.004433
 H   33.180238   37.265343   38.392013
 H   34.811428   37.647623   38.906233
 C   42.234518   31.203753   39.497233
 H   43.006918   30.661563   38.954533
 H   42.634018   31.482443   40.473633
 H   41.321818   30.586393   39.627733
 H   41.976518   32.091583   38.934333
 C   39.229918   37.388553   43.036933
 H   38.290438   37.020433   43.417133
 H   39.986418   37.159393   43.773133
 H   39.466318   36.831873   42.133233
 H   39.130988   38.445973   42.828633
 C   38.620598   38.521813   34.557363
 H   38.200308   37.523613   34.703203
 H   38.432568   38.812033   33.513973
 H   38.180248   39.236393   35.249213
 H   39.690418   38.498343   34.721233
 C   37.278628   41.765653   38.242823
 H   36.828218   41.372353   39.149633
 H   37.731588   40.958953   37.689543
 H   36.526588   42.151153   37.578843
 H   38.002658   42.557653   38.532163
 C   36.386388   45.577253   37.031663
 H   35.669128   45.191853   37.759843
 H   35.886048   46.306153   36.363193
 H   36.839348   44.733053   36.466713
 H   37.207598   46.062653   37.557533
 C   33.774558   40.551053   38.052363
 H   33.270288   39.590153   37.944173
 H   33.997428   40.934853   37.044063
 H   33.104418   41.249253   38.563523
 H   34.691608   40.411553   38.630023
 C   42.463918   39.450853   30.252343
 H   42.929618   40.432653   30.349923
 H   42.329318   39.072873   31.258103
 H   43.157018   38.805493   29.673006
 H   41.524718   39.527553   29.714824
 C   41.758718   34.244293   42.380033
 H   41.947618   35.156313   42.933333
 H   42.428818   34.157383   41.517533
 H   41.894818   33.424713   43.095933
 H   40.737018   34.194293   42.032633
 C   39.795418   43.723653   35.668673
 H   39.172218   44.245953   34.918563
 H   39.323518   43.729353   36.655213
 H   39.964518   42.693953   35.323243
 H   40.780918   44.213153   35.706153
 C   41.218718   29.790341   34.314363
 H   40.533318   29.344237   34.991313
 H   40.940318   29.644519   33.284253
 H   42.221718   29.378389   34.429703
 H   41.280918   30.848063   34.499483
