#total energy=-4.5758794 eV

CRYSTAL
PRIMVEC
        75.9000000            0.00000000           0.00000000
        0.00000000            75.9000000           0.00000000
        0.00000000            0.00000000           75.9000000
PRIMCOORD
320 1
 C   34.332213   39.927869   37.822151
 H   34.305763   40.819529   37.175811
 H   33.683783   39.179359   37.408281
 H   34.006583   40.221529   38.828541
 H   35.356883   39.562509   37.851281
 C   38.523063   40.334529   31.351881
 H   39.187723   40.356229   32.234471
 H   39.107173   40.518229   30.451085
 H   37.741873   41.090929   31.438281
 H   38.072013   39.354639   31.295361
 C   40.491793   42.196629   43.264671
 H   39.666363   41.609129   42.867971
 H   40.681093   41.907629   44.303471
 H   41.379893   42.031529   42.682571
 H   40.221093   43.253029   43.260571
 C   40.834893   34.163369   32.619761
 H   40.438993   33.517919   31.825261
 H   41.888493   33.903669   32.744871
 H   40.749893   35.203349   32.315461
 H   40.298793   34.006509   33.565161
 C   34.677683   42.352329   31.416131
 H   33.712713   41.828929   31.406281
 H   34.504253   43.442229   31.414601
 H   35.282303   42.058329   32.284021
 H   35.221443   42.116029   30.491068
 C   40.421393   40.132549   35.477101
 H   39.874483   39.289619   35.905131
 H   40.785793   40.786029   36.285141
 H   41.289093   39.773829   34.897431
 H   39.784223   40.671329   34.782331
 C   36.818203   34.132249   32.456881
 H   36.274433   34.780849   31.756171
 H   36.518753   33.096319   32.335721
 H   37.889123   34.208489   32.250151
 H   36.627613   34.461289   33.471001
 C   42.491493   38.632929   44.977471
 H   43.232693   39.358099   45.314671
 H   42.000093   39.026129   44.098271
 H   41.738793   38.461269   45.748171
 H   42.990693   37.690609   44.703771
 C   44.256793   40.780129   41.053971
 H   43.567293   41.002929   40.227471
 H   45.003093   41.582429   41.118671
 H   43.725893   40.732629   41.995571
 H   44.771993   39.835049   40.910671
 C   35.027673   30.755860   41.308471
 H   34.133893   30.413977   40.791171
 H   35.464403   31.607859   40.811371
 H   34.767223   31.033522   42.331271
 H   35.768013   29.953624   41.304071
 C   32.902013   32.537579   38.875091
 H   32.039113   31.917849   38.658741
 H   32.958553   32.763419   39.938281
 H   33.831803   32.031099   38.624011
 H   32.787953   33.455019   38.296571
 C   34.841583   38.499619   43.977171
 H   34.116433   37.813169   44.423171
 H   34.353193   39.062339   43.179171
 H   35.666683   37.932169   43.554971
 H   35.215903   39.190049   44.736771
 C   32.804663   40.831729   41.581171
 H   33.847653   41.158029   41.679871
 H   32.757083   39.833979   41.126571
 H   32.239793   41.509429   40.916171
 H   32.327143   40.830329   42.555171
 C   31.023457   37.925319   43.110471
 H   30.209663   38.515169   42.673471
 H   31.799813   37.775369   42.351671
 H   30.636577   36.964239   43.446971
 H   31.441193   38.460129   43.948871
 C   42.728093   32.285969   41.242471
 H   42.788393   31.631259   42.126571
 H   43.372493   31.888519   40.458171
 H   41.708193   32.296399   40.861471
 H   43.025393   33.315549   41.511271
 C   38.010183   37.830139   37.941321
 H   37.851123   38.907679   38.010171
 H   38.184403   37.582149   36.911941
 H   38.891653   37.623819   38.533551
 H   37.163713   37.281019   38.395831
 C   31.315273   36.455439   36.568811
 H   30.435355   36.516839   37.220281
 H   31.103845   35.684439   35.828501
 H   32.188263   36.163909   37.148221
 H   31.488523   37.415259   36.082941
 C   36.934173   45.937029   36.663421
 H   37.586003   46.722429   37.092081
 H   36.331433   45.501029   37.470601
 H   36.271743   46.364329   35.906981
 H   37.592373   45.209229   36.182481
 C   42.693593   42.341729   33.420651
 H   43.747093   42.170229   33.725361
 H   42.113193   42.790529   34.224971
 H   42.650293   43.012029   32.565681
 H   42.256793   41.410129   33.101871
 C   38.330543   34.058739   36.189711
 H   37.766663   33.232619   36.665501
 H   37.851553   35.006399   36.465241
 H   39.355443   34.040599   36.562991
 H   38.311053   33.892969   35.098031
 C   40.650193   44.409429   36.560371
 H   41.721993   44.302829   36.571531
 H   40.303893   44.880929   37.490391
 H   40.218093   43.408029   36.458141
 H   40.337093   45.012829   35.708651
 C   37.464123   36.564119   41.697271
 H   36.635163   37.068079   41.211971
 H   37.144103   35.615609   42.165171
 H   37.898573   37.182699   42.485271
 H   38.223923   36.337739   40.944071
 C   44.206793   34.434359   38.355081
 H   45.024793   34.334429   39.055191
 H   43.674093   35.361579   38.556481
 H   43.530993   33.574549   38.422011
 H   44.553793   34.479609   37.323781
 C   38.402963   32.548259   41.828771
 H   37.502103   32.635999   42.439871
 H   38.418373   31.541409   41.379971
 H   38.411403   33.314089   41.054371
 H   39.299303   32.648199   42.439371
 C   34.294253   33.122349   35.538061
 H   34.516403   32.978969   34.482921
 H   33.611303   33.960679   35.669551
 H   35.211163   33.260219   36.120861
 H   33.790803   32.230139   35.912971
 C   37.319483   42.219729   37.367251
 H   37.729683   43.159129   37.709911
 H   36.370653   42.418829   36.852651
 H   38.009123   41.778029   36.649471
 H   37.199653   41.543229   38.208361
 C   44.499693   35.181059   33.797411
 H   43.480293   35.546229   33.886221
 H   44.552693   34.571239   32.887611
 H   44.703993   34.549329   34.655831
 H   45.235993   35.981739   33.781331
 C   40.541293   35.247089   43.840571
 H   41.266893   34.605499   43.359671
 H   39.598613   35.214619   43.292571
 H   40.363993   34.916189   44.861571
 H   40.878293   36.287099   43.847571
 C   39.781023   31.545379   38.398351
 H   39.716443   31.326899   37.327391
 H   38.769623   31.648709   38.770261
 H   40.338693   32.463259   38.571831
 H   40.258893   30.718786   38.919551
 C   30.321455   39.019159   39.309711
 H   29.763262   38.605539   38.457301
 H   31.286243   39.406809   38.962051
 H   29.771251   39.831359   39.809731
 H   30.485177   38.218099   40.024211
 C   44.563893   38.868369   35.129791
 H   45.581293   39.252259   35.235881
 H   43.868393   39.522359   35.652931
 H   44.311093   38.834619   34.070551
 H   44.568393   37.864249   35.583581
 C   42.067393   32.536139   35.666521
 H   42.185993   31.741729   36.397241
 H   41.197193   32.294719   35.056521
 H   42.955493   32.593559   35.042371
 H   41.894993   33.482129   36.172481
 C   37.815243   44.510029   40.651471
 H   38.579543   45.114129   40.136671
 H   37.928553   44.594629   41.739571
 H   37.894823   43.462829   40.372171
 H   36.841473   44.896429   40.332571
 C   38.086393   30.916984   34.238291
 H   38.964443   31.544759   34.037321
 H   38.174283   30.441687   35.229351
 H   37.177043   31.540519   34.226041
 H   38.016163   30.140283   33.485591
 C   40.413193   38.774299   41.376771
 H   40.056663   38.801089   40.357871
 H   40.556493   37.736649   41.690871
 H   41.354093   39.338239   41.489771
 H   39.669783   39.200129   42.057271
 C   43.899993   42.324929   37.074021
 H   44.796293   41.699129   37.156321
 H   44.090093   43.111229   36.324671
 H   43.068193   41.692329   36.744611
 H   43.637693   42.739629   38.046731
 C   42.552393   38.786409   38.374371
 H   42.616993   38.486379   39.421211
 H   42.995493   38.044099   37.721151
 H   41.514493   38.962239   38.103891
 H   43.154093   39.695859   38.251931
 C   42.159293   44.719029   40.487371
 H   43.035193   44.432929   41.088571
 H   42.370693   44.480029   39.448251
 H   42.002993   45.793129   40.586871
 H   41.274093   44.186829   40.797971
 C   33.502223   34.551399   43.041571
 H   34.007273   33.684349   42.620471
 H   33.770163   34.620439   44.086071
 H   32.432013   34.463719   42.897971
 H   33.848713   35.453149   42.555071
 C   40.624593   35.240239   39.619671
 H   39.716133   34.947049   39.113841
 H   40.799293   36.275299   39.385251
 H   40.554993   35.126929   40.700271
 H   41.471893   34.682129   39.265461
 C   32.691653   35.359439   33.006691
 H   32.260673   36.202889   33.558011
 H   33.717433   35.202209   33.327781
 H   32.662703   35.546059   31.922541
 H   32.145083   34.450179   33.220461
 C   30.316214   35.186379   40.319871
 H   30.935242   35.664629   41.105071
 H   29.300816   35.613669   40.344771
 H   30.256388   34.106819   40.472671
 H   30.781216   35.419319   39.374771
 C   40.194493   41.562929   39.264911
 H   39.748523   42.530129   39.092771
 H   39.562533   40.778329   38.859011
 H   41.139893   41.506929   38.745641
 H   40.348793   41.386829   40.328671
 C   33.671313   36.971209   39.835081
 H   33.899213   37.579709   40.708371
 H   34.545233   37.001809   39.187921
 H   33.448793   35.941449   40.156571
 H   32.815083   37.420709   39.322891
 C   42.066093   38.227239   31.655501
 H   42.054593   37.848519   32.676661
 H   42.132893   37.381279   30.974129
 H   41.142793   38.744579   31.432361
 H   42.919493   38.895529   31.520601
 C   36.202443   34.115609   39.130031
 H   35.829663   34.169249   40.160871
 H   35.393903   34.451359   38.493331
 H   37.053063   34.780459   39.009191
 H   36.495933   33.082369   38.943511
 C   36.043913   29.921936   37.567651
 H   35.261343   29.844722   38.326851
 H   36.164823   30.979534   37.299821
 H   36.984243   29.563407   37.988901
 H   35.760413   29.341418   36.663741
 C   36.049443   42.545829   43.585371
 H   35.443063   41.723429   43.948771
 H   37.022263   42.166929   43.255471
 H   35.543973   43.035829   42.761371
 H   36.224133   43.253629   44.397771
 C   37.122933   35.447729   45.343671
 H   37.149093   34.540079   44.732071
 H   36.295713   36.068929   44.999871
 H   38.055563   35.987979   45.199871
 H   37.033273   35.176319   46.396271
 C   31.120777   41.925029   37.071971
 H   30.759655   41.852929   38.088471
 H   30.282360   41.882829   36.400181
 H   31.622483   42.878629   36.868001
 H   31.772433   41.079129   36.854191
 C   39.004153   36.527529   29.724672
 H   39.376753   37.528039   29.490837
 H   38.295783   36.257479   28.948111
 H   39.835493   35.833499   29.673562
 H   38.541533   36.540609   30.715028
 C   36.725063   40.134529   40.797171
 H   36.282973   41.088629   40.487771
 H   37.816363   40.228129   40.668271
 H   36.508363   39.910989   41.840371
 H   36.316893   39.337319   40.173871
 C   35.271883   38.057709   31.442791
 H   36.167633   37.731799   30.874178
 H   35.290403   37.652499   32.448771
 H   34.331193   37.786979   30.955167
 H   35.314743   39.145449   31.525961
 C   36.408923   40.149229   34.548361
 H   36.069663   39.232319   34.063611
 H   36.901443   39.906199   35.493311
 H   37.098823   40.654829   33.895451
 H   35.516023   40.774329   34.722831
 C   38.313013   43.433329   33.556501
 H   38.821683   44.362629   33.810751
 H   37.819033   43.036329   34.446041
 H   39.000183   42.702729   33.162561
 H   37.556973   43.680129   32.816751
 C   34.415753   43.951729   34.706151
 H   34.320333   43.840529   35.779311
 H   33.562143   43.449829   34.252441
 H   34.417893   45.011329   34.456851
 H   35.334503   43.484229   34.379691
 C   41.461193   36.444629   35.836781
 H   42.253693   35.920789   36.382251
 H   40.679493   36.746349   36.526851
 H   41.861393   37.328339   35.332651
 H   41.044593   35.782249   35.099481
 C   35.188923   36.733149   35.793981
 H   34.131713   36.897239   35.554581
 H   35.639193   37.687999   36.053301
 H   35.248853   36.038619   36.627101
 H   35.695413   36.291199   34.932341
 C   38.569523   39.147079   44.830871
 H   39.201143   38.298349   44.545271
 H   39.169883   39.950699   45.196171
 H   37.923113   38.854809   45.644971
 H   38.002033   39.507159   43.969571
 C   43.725893   36.732819   41.797371
 H   43.834593   36.112719   42.707971
 H   44.705293   36.878319   41.343771
 H   43.069893   36.252529   41.061571
 H   43.298193   37.697219   42.078771
 C   38.462903   37.138089   33.655641
 H   39.241033   37.520899   32.992061
 H   38.740703   36.152839   34.022041
 H   37.514073   37.072539   33.108801
 H   38.346543   37.833859   34.475671
 C   32.819363   39.731019   34.225301
 H   33.306193   39.153979   35.006221
 H   31.805143   39.346179   34.084981
 H   32.801003   40.780729   34.466321
 H   33.370813   39.612259   33.307251
 C   34.124443   43.744429   39.314161
 H   35.072433   43.206829   39.253761
 H   34.190613   44.669629   38.750281
 H   33.350043   43.122329   38.897851
 H   33.937603   44.003029   40.352271
 C   46.167193   37.932939   38.155571
 H   46.474093   37.627759   37.151901
 H   45.563593   38.835069   38.088651
 H   47.024193   38.164399   38.798801
 H   45.561493   37.132249   38.592591
