#total energy=-4.4559696 eV

CRYSTAL
PRIMVEC
        75.9000000            0.00000000           0.00000000
        0.00000000            75.9000000           0.00000000
        0.00000000            0.00000000           75.9000000
PRIMCOORD
320 1
 C   41.559225   36.764641   36.633746
 H   42.237325   37.567541   36.937106
 H   41.893125   35.827711   37.071336
 H   41.636925   36.655041   35.549676
 H   40.544625   36.978671   36.986836
 C   40.695625   45.617441   39.430616
 H   39.925635   45.650341   40.230746
 H   41.311425   44.726341   39.614006
 H   41.331525   46.506341   39.448816
 H   40.219225   45.551141   38.440516
 C   32.266015   32.817961   37.925596
 H   33.363245   32.933051   37.863356
 H   31.920725   33.287641   38.840116
 H   31.800205   33.316331   37.074376
 H   31.990725   31.753191   37.892316
 C   42.094225   38.189891   43.726446
 H   41.073425   38.374001   44.017746
 H   42.399125   37.227431   44.073246
 H   42.169425   38.265021   42.648946
 H   42.692825   38.953821   44.219346
 C   38.115855   42.458841   32.335876
 H   39.067015   42.977141   32.199676
 H   37.343985   43.177641   32.603386
 H   37.836945   41.961041   31.402736
 H   38.226615   41.720341   33.114566
 C   36.420435   41.273141   35.959566
 H   37.397935   41.322241   36.438886
 H   35.647585   41.199941   36.733606
 H   36.236585   42.201741   35.388886
 H   36.389375   40.455641   35.228676
 C   42.233125   41.848741   42.110246
 H   42.541825   41.723441   43.153646
 H   43.086325   42.176341   41.528446
 H   41.812825   40.923041   41.736246
 H   41.479025   42.643841   42.079946
 C   34.174175   33.774901   34.307476
 H   34.263015   32.725191   34.607866
 H   35.142895   34.250101   34.422516
 H   33.434005   34.265831   34.941246
 H   33.899905   33.805231   33.234326
 C   34.402835   41.859741   32.126016
 H   33.844235   40.976441   31.850496
 H   35.047155   41.657341   32.992236
 H   35.037155   42.140641   31.283306
 H   33.695825   42.654041   32.350966
 C   31.672945   40.538541   41.411946
 H   30.670762   40.234741   41.088446
 H   32.292385   39.664661   41.597146
 H   32.150715   41.149841   40.650946
 H   31.592915   41.071641   42.338046
 C   45.067225   37.100901   39.031196
 H   45.842325   36.342891   39.078316
 H   44.093725   36.645031   38.831636
 H   45.022825   37.603441   39.989946
 H   45.306225   37.838361   38.261266
 C   35.961215   31.554701   36.918166
 H   34.950645   31.292751   36.637356
 H   36.485985   32.083461   36.120856
 H   36.524045   30.645139   37.154306
 H   35.932225   32.207911   37.810536
 C   43.067825   33.382861   38.508846
 H   42.446625   33.244881   37.603166
 H   44.116625   33.333061   38.269476
 H   42.760525   32.644861   39.271436
 H   42.847225   34.375701   38.905416
 C   37.428095   32.569641   44.107846
 H   36.453515   32.450801   44.599146
 H   38.135105   31.831471   44.524246
 H   37.796445   33.583811   44.244146
 H   37.341155   32.338861   43.037546
 C   35.636575   40.198041   43.769046
 H   34.891035   40.746341   43.196846
 H   36.577995   40.222041   43.220146
 H   35.769595   40.650141   44.748846
 H   35.343585   39.164711   43.847946
 C   37.845885   37.946361   38.137236
 H   37.746815   37.071661   37.495236
 H   37.623655   38.836541   37.555566
 H   37.077205   37.876901   38.908846
 H   38.816235   37.995951   38.588036
 C   44.972725   35.039701   35.508606
 H   45.251225   34.926071   34.463446
 H   45.440825   35.934851   35.884546
 H   45.302025   34.175511   36.097216
 H   43.896725   35.137001   35.554596
 C   40.243525   39.054411   29.231081
 H   39.424965   39.272091   28.531226
 H   41.050725   38.636581   28.642546
 H   40.588925   39.959181   29.735112
 H   39.942355   38.321701   29.967857
 C   32.889595   42.886341   38.127016
 H   33.510515   43.332841   38.903426
 H   32.626785   43.622741   37.384146
 H   33.413785   42.098241   37.598196
 H   32.009385   42.464941   38.583246
 C   39.182455   39.399051   41.438346
 H   39.447105   38.625151   42.162546
 H   38.176005   39.233181   41.006546
 H   39.205755   40.363141   41.947346
 H   39.889835   39.395251   40.619146
 C   35.301475   39.267471   29.311848
 H   36.142995   39.926601   29.122484
 H   34.386085   39.694671   28.922466
 H   35.171505   39.160711   30.386143
 H   35.447175   38.309331   28.820826
 C   38.086795   34.929191   41.380646
 H   38.052395   35.832961   40.760246
 H   39.104365   34.756911   41.738146
 H   37.795065   34.062721   40.771246
 H   37.392765   35.032831   42.215846
 C   33.908855   43.978441   41.901646
 H   33.996865   44.821841   41.220046
 H   34.571095   43.178641   41.589046
 H   32.871725   43.636941   41.909646
 H   34.205835   44.305741   42.896346
 C   31.670475   37.810041   43.921446
 H   32.667865   38.249571   43.970946
 H   31.391865   37.511081   44.939846
 H   30.954781   38.539481   43.582246
 H   31.683335   36.928251   43.281246
 C   40.691925   32.083471   41.484146
 H   41.214325   31.862771   42.422546
 H   40.991525   33.070351   41.103546
 H   39.628935   32.080851   41.639646
 H   40.943125   31.341561   40.749746
 C   37.664725   38.679501   32.055616
 H   38.606215   38.672561   32.629526
 H   37.757925   39.230381   31.120036
 H   37.323345   37.651641   31.834916
 H   36.898585   39.183551   32.666826
 C   34.682595   44.603741   34.626906
 H   35.259115   44.865341   35.502096
 H   33.934025   43.844541   34.868226
 H   35.357905   44.245341   33.842146
 H   34.181665   45.476641   34.230276
 C   31.486525   36.349631   40.023346
 H   30.779928   35.666571   40.530946
 H   32.501545   35.943041   40.111446
 H   31.184135   36.499671   38.984326
 H   31.448145   37.338301   40.515146
 C   36.467595   44.464141   38.412026
 H   35.602905   45.110741   38.422346
 H   36.507215   43.853541   39.327266
 H   37.393205   45.040341   38.339136
 H   36.403775   43.810041   37.526566
 C   40.127025   30.302561   37.422966
 H   40.987025   30.930181   37.698156
 H   39.364755   30.877150   36.926516
 H   40.518725   29.516182   36.789076
 H   39.727455   29.920588   38.355656
 C   31.926685   41.014241   34.539246
 H   31.666845   39.964551   34.561436
 H   31.345745   41.556341   35.283736
 H   32.996065   41.170341   34.752326
 H   31.652125   41.420941   33.542706
 C   39.372235   40.930241   45.004746
 H   38.889745   41.870641   45.307646
 H   40.198625   41.144541   44.320746
 H   38.655745   40.253041   44.538746
 H   39.754295   40.456641   45.913746
 C   35.463265   35.208971   31.158266
 H   35.075995   36.148911   31.584556
 H   36.250525   35.433411   30.420637
 H   34.643525   34.648751   30.717622
 H   35.889685   34.605391   31.956026
 C   44.622025   35.336151   42.516346
 H   44.200625   36.326221   42.329746
 H   44.810125   35.213481   43.585146
 H   43.902925   34.565631   42.206546
 H   45.543825   35.192931   41.945046
 C   35.350005   35.206011   38.027096
 H   35.249285   34.522611   37.187186
 H   35.484215   36.214111   37.697836
 H   34.418045   35.192571   38.592916
 H   36.167915   34.924771   38.690776
 C   32.623465   37.994001   32.113056
 H   31.922705   38.649101   32.636626
 H   33.623275   38.393721   32.235966
 H   32.559255   36.995501   32.537146
 H   32.369715   37.948571   31.060506
 C   33.648565   38.647921   37.716876
 H   33.279895   39.508821   38.273816
 H   34.723185   38.641241   37.692486
 H   33.259825   37.728351   38.166176
 H   33.283205   38.701981   36.685666
 C   37.603535   32.061751   33.336356
 H   36.528785   31.931901   33.243646
 H   38.112375   31.881461   32.388696
 H   37.954435   31.377841   34.102586
 H   37.790135   33.091151   33.624646
 C   37.943545   37.064611   44.938946
 H   36.856385   37.008041   44.837446
 H   38.212145   37.934131   45.559546
 H   38.402505   37.098381   43.952146
 H   38.321765   36.166961   45.456646
 C   35.043675   37.243761   41.280946
 H   35.450185   36.225261   41.201346
 H   34.090455   37.207031   41.822846
 H   35.793165   37.880791   41.770346
 H   34.818175   37.614211   40.286346
 C   44.127725   39.420971   34.985516
 H   44.539025   40.326141   34.523076
 H   44.762425   39.089651   35.801816
 H   44.066925   38.625651   34.249166
 H   43.142025   39.602311   35.381796
 C   41.068825   34.541571   44.150346
 H   41.019325   35.235141   43.316746
 H   42.048325   34.070501   44.155846
 H   40.293525   33.795541   44.063646
 H   40.903225   35.097401   45.077046
 C   35.164445   37.641411   34.707856
 H   35.526155   37.193711   33.788326
 H   35.998915   37.888021   35.345446
 H   34.643205   38.553721   34.502906
 H   34.504195   36.986171   35.258536
 C   39.081145   33.992531   37.942926
 H   39.692625   33.405001   38.622796
 H   38.182055   33.426051   37.672006
 H   38.738735   34.894131   38.429866
 H   39.663605   34.256811   37.046046
 C   38.164875   43.374341   42.586946
 H   37.524095   44.182241   42.279346
 H   37.536085   42.630541   43.090746
 H   38.662645   42.865241   41.736846
 H   38.911615   43.738741   43.291046
 C   41.387525   36.330481   40.409346
 H   40.683125   36.705591   41.160446
 H   42.138925   35.679811   40.851146
 H   40.794425   35.810281   39.640356
 H   41.892225   37.191631   39.971546
 C   45.252525   39.652061   42.586846
 H   46.052025   40.076541   41.979446
 H   44.384225   39.474411   41.952246
 H   45.589925   38.693611   43.020446
 H   45.003525   40.354841   43.410546
 C   34.513605   33.179791   41.392846
 H   33.691015   33.912511   41.453746
 H   34.073775   32.196041   41.263246
 H   35.121445   33.379471   40.514246
 H   35.120415   33.180531   42.292246
 C   37.225715   30.419538   40.371546
 H   37.909035   31.119421   39.904326
 H   37.603625   30.107406   41.354246
 H   37.136415   29.561356   39.731406
 H   36.253695   30.893534   40.494146
 C   41.481625   32.653891   34.704716
 H   40.523125   32.437011   35.140636
 H   41.342325   32.753471   33.634036
 H   41.887125   33.573151   35.083726
 H   42.161525   31.841531   34.915316
 C   46.085125   40.916341   38.411326
 H   45.365525   41.233041   39.139796
 H   46.512225   39.943271   38.731586
 H   45.596925   40.813641   37.435196
 H   46.900325   41.622841   38.370536
 C   38.451705   35.801231   34.693696
 H   37.707315   35.507721   35.445066
 H   39.295595   35.111101   34.712216
 H   38.001945   35.845531   33.703706
 H   38.818085   36.818481   34.921156
 C   42.557825   42.624541   36.257406
 H   42.533125   43.099441   35.277976
 H   43.591325   42.537941   36.568446
 H   42.076325   41.637941   36.222276
 H   42.041725   43.285041   36.971366
 C   39.782705   39.794621   35.400696
 H   39.948015   40.833141   35.062326
 H   38.753555   39.509081   35.167566
 H   40.505825   39.152751   34.886246
 H   39.923155   39.710651   36.476626
 C   39.178495   44.266241   35.264956
 H   38.164695   43.849641   35.279826
 H   39.819375   43.604941   34.657836
 H   39.579975   44.295041   36.290626
 H   39.179825   45.252441   34.811716
 C   41.650725   37.255741   32.600336
 H   41.565025   37.295841   31.520466
 H   40.709725   36.899881   33.015406
 H   42.455425   36.597531   32.878906
 H   41.934525   38.241801   32.998326
 C   35.661255   40.849741   40.151246
 H   35.325615   41.640341   39.487206
 H   36.092545   40.077141   39.510556
 H   36.417805   41.213941   40.866646
 H   34.824065   40.405141   40.690646
 C   42.480525   39.885461   38.925206
 H   42.998925   39.889351   37.959236
 H   43.091325   39.320061   39.614046
 H   42.366025   40.912341   39.297826
 H   41.502825   39.406091   38.833026
 C   34.440645   35.110081   44.844346
 H   33.791555   35.895831   45.238246
 H   34.773945   35.406781   43.847046
 H   33.919635   34.148521   44.739246
 H   35.337035   34.977691   45.454446
 C   31.348605   36.452691   35.877396
 H   32.165475   36.001401   36.449676
 H   31.033243   35.795551   35.086096
 H   30.497573   36.636931   36.553976
 H   31.686655   37.401981   35.457646
 C   39.274775   41.871341   38.783716
 H   39.772115   41.737141   37.818106
 H   38.769705   42.848241   38.745456
 H   40.024575   41.832341   39.571936
 H   38.544245   41.071741   38.982946
 C   41.734525   41.072141   32.495686
 H   42.084025   40.928241   33.519406
 H   40.777925   40.551041   32.359156
 H   41.586025   42.129041   32.307586
 H   42.442925   40.667241   31.783336
 C   39.280355   34.812861   31.155636
 H   38.360685   34.214231   31.095306
 H   39.040865   35.877701   31.103236
 H   39.802575   34.596571   32.084946
 H   39.914965   34.581811   30.315437
 C   29.815715   39.392711   38.183256
 H   30.651669   39.942221   38.627856
 H   30.040662   39.173791   37.140356
 H   28.918775   40.001121   38.184436
 H   29.694843   38.483501   38.739346
